@<TRIPOS>MOLECULE
*****
 36 39 0 0 0
SMALL
GASTEIGER

@<TRIPOS>ATOM
      1 N         139.6079  139.6975  166.0951 N.am    1  UNL1       -0.2689
      2 C         138.9413  139.5185  167.4269 C.2     1  UNL1        0.2492
      3 O         137.7742  138.6214  167.7152 O.2     1  UNL1       -0.2699
      4 C         139.6467  140.3941  168.4198 C.ar    1  UNL1        0.0516
      5 C         139.4275  140.6286  169.8850 C.ar    1  UNL1        0.0043
      6 C         140.3109  141.5833  170.6321 C.ar    1  UNL1        0.0001
      7 C         141.4135  142.3035  169.9140 C.ar    1  UNL1       -0.0003
      8 C         141.6327  142.0689  168.4488 C.ar    1  UNL1       -0.0021
      9 C         140.7493  141.1142  167.7017 C.ar    1  UNL1        0.0089
     10 C         140.7253  140.6837  166.2650 C.3     1  UNL1        0.1750
     11 C         141.6555  141.1565  165.1873 C.2     1  UNL1        0.2451
     12 O         141.1681  142.1183  164.1446 O.2     1  UNL1       -0.2729
     13 N         143.0731  140.6674  165.1524 N.am    1  UNL1       -0.2988
     14 H         143.3931  140.0361  165.8367 H       1  UNL1        0.1498
     15 C         144.0033  141.1401  164.0747 C.3     1  UNL1        0.1164
     16 C         143.9142  140.5540  162.6969 C.ar    1  UNL1       -0.0024
     17 C         143.9115  141.4548  161.4975 C.ar    1  UNL1        0.0005
     18 C         143.8224  140.8687  160.1195 C.ar    1  UNL1        0.0369
     19 C         143.7359  139.3818  159.9410 C.ar    1  UNL1        0.1468
     20 C         143.7386  138.4811  161.1405 C.ar    1  UNL1        0.0369
     21 C         143.8277  139.0672  162.5184 C.ar    1  UNL1        0.0005
     22 O         143.6468  138.7957  158.5632 O.3     1  UNL1       -0.4045
     23 C         142.3622  138.1819  158.0910 C.3     1  UNL1        0.5753
     24 F         141.0775  137.5681  157.6188 F       1  UNL1       -0.1328
     25 F         141.8187  139.5480  157.7938 F       1  UNL1       -0.1328
     26 F         142.9056  136.8158  158.3882 F       1  UNL1       -0.1328
     27 C         140.2842  137.9763  165.0558 C.3     1  UNL1        0.0203
     28 C         139.2245  139.0109  164.8178 C.3     1  UNL1        0.0669
     29 C         138.1647  140.0455  164.5798 C.3     1  UNL1        0.0203
     30 C         138.8410  138.3243  163.5405 C.3     1  UNL1        0.0640
     31 C         138.8990  139.0710  162.2409 C.ar    1  UNL1        0.0606
     32 C         140.1808  139.7152  161.8026 C.ar    1  UNL1        0.0148
     33 C         140.2387  140.4620  160.5029 C.ar    1  UNL1        0.0028
     34 C         139.0149  140.5646  159.6417 C.ar    1  UNL1        0.0207
     35 C         137.7331  139.9204  160.0801 C.ar    1  UNL1        0.0984
     36 N         137.6751  139.1737  161.3796 N.ar    1  UNL1       -0.2481
@<TRIPOS>BOND
     1    27    28    1
     2    28    29    1
     3    28    30    1
     4    30    31    1
     5    31    32   ar
     6    32    33   ar
     7    33    34   ar
     8    34    35   ar
     9    35    36   ar
    10    28     1    1
    11     1     2   am
    12     2     3    2
    13     2     4    1
    14     4     5   ar
    15     5     6   ar
    16     6     7   ar
    17     7     8   ar
    18     8     9   ar
    19     9    10    1
    20    10    11    1
    21    11    12    2
    22    11    13   am
    23    13    15    1
    24    15    16    1
    25    16    17   ar
    26    17    18   ar
    27    18    19   ar
    28    19    22    1
    29    22    23    1
    30    23    24    1
    31    23    25    1
    32    23    26    1
    33    19    20   ar
    34    20    21   ar
    35    36    31   ar
    36    10     1    1
    37    21    16   ar
    38     9     4   ar
    39    13    14    1
@<TRIPOS>MOLECULE
*****
 36 39 0 0 0
SMALL
GASTEIGER

@<TRIPOS>ATOM
      1 N         139.5589  139.4272  161.4359 N.am    1  UNL1       -0.2689
      2 C         138.9798  139.2999  160.0580 C.2     1  UNL1        0.2492
      3 O         137.5771  139.6471  159.6557 O.2     1  UNL1       -0.2699
      4 C         140.0496  138.7645  159.1531 C.ar    1  UNL1        0.0516
      5 C         140.0546  138.4361  157.6896 C.ar    1  UNL1        0.0043
      6 C         141.2999  137.9041  157.0446 C.ar    1  UNL1        0.0001
      7 C         142.5403  137.7004  157.8632 C.ar    1  UNL1       -0.0003
      8 C         142.5353  138.0288  159.3267 C.ar    1  UNL1       -0.0021
      9 C         141.2900  138.5609  159.9717 C.ar    1  UNL1        0.0089
     10 C         140.9867  138.9704  161.3825 C.3     1  UNL1        0.1750
     11 C         141.9433  138.9302  162.5372 C.2     1  UNL1        0.2451
     12 O         142.1253  137.6617  163.3167 O.2     1  UNL1       -0.2729
     13 N         142.7180  140.1588  162.9125 N.am    1  UNL1       -0.2988
     14 H         142.5986  140.9914  162.4009 H       1  UNL1        0.1498
     15 C         143.6746  140.1186  164.0672 C.3     1  UNL1        0.1164
     16 C         143.2177  140.5337  165.4342 C.ar    1  UNL1       -0.0024
     17 C         143.4600  141.9346  165.9126 C.ar    1  UNL1        0.0005
     18 C         143.0032  142.3499  167.2797 C.ar    1  UNL1        0.0369
     19 C         142.3041  141.3643  168.1684 C.ar    1  UNL1        0.1468
     20 C         142.0619  139.9634  167.6900 C.ar    1  UNL1        0.0369
     21 C         142.5187  139.5481  166.3229 C.ar    1  UNL1        0.0005
     22 O         141.8473  141.7794  169.5355 O.3     1  UNL1       -0.4045
     23 C         141.2754  143.1492  169.7512 C.3     1  UNL1        0.5753
     24 F         140.7035  144.5191  169.9670 F       1  UNL1       -0.1328
     25 F         139.9729  142.6987  169.1590 F       1  UNL1       -0.1328
     26 F         142.5778  143.5997  170.3434 F       1  UNL1       -0.1328
     27 C         139.1715  141.3365  162.2752 C.3     1  UNL1        0.0203
     28 C         138.8371  139.9240  162.6533 C.3     1  UNL1        0.0669
     29 C         138.5026  138.5115  163.0314 C.3     1  UNL1        0.0203
     30 C         138.1152  140.4208  163.8707 C.3     1  UNL1        0.0640
     31 C         138.4302  141.7772  164.4281 C.ar    1  UNL1        0.0606
     32 C         139.6272  141.9652  165.3123 C.ar    1  UNL1        0.0148
     33 C         139.9423  143.3218  165.8697 C.ar    1  UNL1        0.0028
     34 C         139.0603  144.4902  165.5428 C.ar    1  UNL1        0.0207
     35 C         137.8633  144.3022  164.6586 C.ar    1  UNL1        0.0984
     36 N         137.5483  142.9458  164.1012 N.ar    1  UNL1       -0.2481
@<TRIPOS>BOND
     1    27    28    1
     2    28    29    1
     3    28    30    1
     4    30    31    1
     5    31    32   ar
     6    32    33   ar
     7    33    34   ar
     8    34    35   ar
     9    35    36   ar
    10    28     1    1
    11     1     2   am
    12     2     3    2
    13     2     4    1
    14     4     5   ar
    15     5     6   ar
    16     6     7   ar
    17     7     8   ar
    18     8     9   ar
    19     9    10    1
    20    10    11    1
    21    11    12    2
    22    11    13   am
    23    13    15    1
    24    15    16    1
    25    16    17   ar
    26    17    18   ar
    27    18    19   ar
    28    19    22    1
    29    22    23    1
    30    23    24    1
    31    23    25    1
    32    23    26    1
    33    19    20   ar
    34    20    21   ar
    35    36    31   ar
    36    10     1    1
    37    21    16   ar
    38     9     4   ar
    39    13    14    1
@<TRIPOS>MOLECULE
*****
 36 39 0 0 0
SMALL
GASTEIGER

@<TRIPOS>ATOM
      1 N         139.3203  139.9299  160.7772 N.am    1  UNL1       -0.2689
      2 C         138.9046  139.5470  159.3877 C.2     1  UNL1        0.2492
      3 O         137.5832  139.8525  158.7470 O.2     1  UNL1       -0.2699
      4 C         140.0424  138.8051  158.7514 C.ar    1  UNL1        0.0516
      5 C         140.2042  138.1886  157.3935 C.ar    1  UNL1        0.0043
      6 C         141.4849  137.4965  157.0319 C.ar    1  UNL1        0.0001
      7 C         142.6037  137.4208  158.0281 C.ar    1  UNL1       -0.0003
      8 C         142.4419  138.0373  159.3859 C.ar    1  UNL1       -0.0021
      9 C         141.1613  138.7294  159.7476 C.ar    1  UNL1        0.0089
     10 C         140.7150  139.4246  160.9996 C.3     1  UNL1        0.1750
     11 C         141.5217  139.5861  162.2538 C.2     1  UNL1        0.2451
     12 O         142.4062  140.7849  162.4275 O.2     1  UNL1       -0.2729
     13 N         141.4439  138.5486  163.3344 N.am    1  UNL1       -0.2988
     14 H         140.8634  137.7617  163.2205 H       1  UNL1        0.1498
     15 C         142.2507  138.7101  164.5886 C.3     1  UNL1        0.1164
     16 C         141.6752  139.4484  165.7606 C.ar    1  UNL1       -0.0024
     17 C         142.5551  140.3283  166.5982 C.ar    1  UNL1        0.0005
     18 C         141.9796  141.0667  167.7703 C.ar    1  UNL1        0.0369
     19 C         140.5243  140.9251  168.1048 C.ar    1  UNL1        0.1468
     20 C         139.6444  140.0451  167.2672 C.ar    1  UNL1        0.0369
     21 C         140.2198  139.3068  166.0951 C.ar    1  UNL1        0.0005
     22 O         139.9487  141.6634  169.2768 O.3     1  UNL1       -0.4045
     23 C         140.5246  142.9867  169.6857 C.3     1  UNL1        0.5753
     24 F         141.1004  144.3100  170.0947 F       1  UNL1       -0.1328
     25 F         141.0178  142.3770  170.9644 F       1  UNL1       -0.1328
     26 F         140.0313  143.5964  168.4071 F       1  UNL1       -0.1328
     27 C         138.0561  139.3911  162.3932 C.3     1  UNL1        0.0203
     28 C         138.4874  140.6855  161.7699 C.3     1  UNL1        0.0669
     29 C         138.9188  141.9799  161.1467 C.3     1  UNL1        0.0203
     30 C         137.6546  141.4410  162.7627 C.3     1  UNL1        0.0640
     31 C         138.2997  142.4405  163.6764 C.ar    1  UNL1        0.0606
     32 C         139.6887  142.2007  164.1894 C.ar    1  UNL1        0.0148
     33 C         140.3337  143.2003  165.1031 C.ar    1  UNL1        0.0028
     34 C         139.5898  144.4396  165.5037 C.ar    1  UNL1        0.0207
     35 C         138.2008  144.6795  164.9907 C.ar    1  UNL1        0.0984
     36 N         137.5558  143.6800  164.0770 N.ar    1  UNL1       -0.2481
@<TRIPOS>BOND
     1    27    28    1
     2    28    29    1
     3    28    30    1
     4    30    31    1
     5    31    32   ar
     6    32    33   ar
     7    33    34   ar
     8    34    35   ar
     9    35    36   ar
    10    28     1    1
    11     1     2   am
    12     2     3    2
    13     2     4    1
    14     4     5   ar
    15     5     6   ar
    16     6     7   ar
    17     7     8   ar
    18     8     9   ar
    19     9    10    1
    20    10    11    1
    21    11    12    2
    22    11    13   am
    23    13    15    1
    24    15    16    1
    25    16    17   ar
    26    17    18   ar
    27    18    19   ar
    28    19    22    1
    29    22    23    1
    30    23    24    1
    31    23    25    1
    32    23    26    1
    33    19    20   ar
    34    20    21   ar
    35    36    31   ar
    36    10     1    1
    37    21    16   ar
    38     9     4   ar
    39    13    14    1
@<TRIPOS>MOLECULE
*****
 36 39 0 0 0
SMALL
GASTEIGER

@<TRIPOS>ATOM
      1 N         141.6759  139.4916  159.9233 N.am    1  UNL1       -0.2689
      2 C         142.3452  138.9931  158.6768 C.2     1  UNL1        0.2492
      3 O         142.0735  137.6862  157.9926 O.2     1  UNL1       -0.2699
      4 C         143.3338  140.0309  158.2348 C.ar    1  UNL1        0.0516
      5 C         144.2796  140.0852  157.0718 C.ar    1  UNL1        0.0043
      6 C         145.1671  141.2795  156.8821 C.ar    1  UNL1        0.0001
      7 C         145.1089  142.4194  157.8553 C.ar    1  UNL1       -0.0003
      8 C         144.1631  142.3651  159.0183 C.ar    1  UNL1       -0.0021
      9 C         143.2756  141.1709  159.2080 C.ar    1  UNL1        0.0089
     10 C         142.2509  140.8375  160.2515 C.3     1  UNL1        0.1750
     11 C         141.8684  141.6989  161.4185 C.2     1  UNL1        0.2451
     12 O         140.7574  142.6972  161.2815 O.2     1  UNL1       -0.2729
     13 N         142.5972  141.5620  162.7225 N.am    1  UNL1       -0.2988
     14 H         143.3265  140.9068  162.8124 H       1  UNL1        0.1498
     15 C         142.2147  142.4234  163.8894 C.3     1  UNL1        0.1164
     16 C         141.7843  141.7906  165.1794 C.ar    1  UNL1       -0.0024
     17 C         140.9174  142.5537  166.1365 C.ar    1  UNL1        0.0005
     18 C         140.4870  141.9209  167.4267 C.ar    1  UNL1        0.0369
     19 C         140.9235  140.5250  167.7597 C.ar    1  UNL1        0.1468
     20 C         141.7904  139.7619  166.8025 C.ar    1  UNL1        0.0369
     21 C         142.2209  140.3947  165.5124 C.ar    1  UNL1        0.0005
     22 O         140.4931  139.8921  169.0497 O.3     1  UNL1       -0.4045
     23 C         139.2297  140.3426  169.7212 C.3     1  UNL1        0.5753
     24 F         137.9663  140.7931  170.3926 F       1  UNL1       -0.1328
     25 F         138.4212  139.6190  168.6855 F       1  UNL1       -0.1328
     26 F         140.0382  141.0663  170.7569 F       1  UNL1       -0.1328
     27 C         141.6738  138.1784  161.5893 C.3     1  UNL1        0.0203
     28 C         140.6174  138.7707  160.7043 C.3     1  UNL1        0.0669
     29 C         139.5610  139.3630  159.8192 C.3     1  UNL1        0.0203
     30 C         139.5589  138.0498  161.4853 C.3     1  UNL1        0.0640
     31 C         139.1268  138.5730  162.8230 C.ar    1  UNL1        0.0606
     32 C         139.1063  137.6612  164.0139 C.ar    1  UNL1        0.0148
     33 C         138.6742  138.1844  165.3517 C.ar    1  UNL1        0.0028
     34 C         138.2626  139.6193  165.4985 C.ar    1  UNL1        0.0207
     35 C         138.2832  140.5311  164.3076 C.ar    1  UNL1        0.0984
     36 N         138.7153  140.0080  162.9699 N.ar    1  UNL1       -0.2481
@<TRIPOS>BOND
     1    27    28    1
     2    28    29    1
     3    28    30    1
     4    30    31    1
     5    31    32   ar
     6    32    33   ar
     7    33    34   ar
     8    34    35   ar
     9    35    36   ar
    10    28     1    1
    11     1     2   am
    12     2     3    2
    13     2     4    1
    14     4     5   ar
    15     5     6   ar
    16     6     7   ar
    17     7     8   ar
    18     8     9   ar
    19     9    10    1
    20    10    11    1
    21    11    12    2
    22    11    13   am
    23    13    15    1
    24    15    16    1
    25    16    17   ar
    26    17    18   ar
    27    18    19   ar
    28    19    22    1
    29    22    23    1
    30    23    24    1
    31    23    25    1
    32    23    26    1
    33    19    20   ar
    34    20    21   ar
    35    36    31   ar
    36    10     1    1
    37    21    16   ar
    38     9     4   ar
    39    13    14    1
@<TRIPOS>MOLECULE
*****
 36 39 0 0 0
SMALL
GASTEIGER

@<TRIPOS>ATOM
      1 N         139.5788  140.0690  166.3078 N.am    1  UNL1       -0.2689
      2 C         139.0328  139.6356  167.6360 C.2     1  UNL1        0.2492
      3 O         137.8729  138.7096  167.8527 O.2     1  UNL1       -0.2699
      4 C         139.8503  140.2909  168.7094 C.ar    1  UNL1        0.0516
      5 C         139.7732  140.2325  170.2063 C.ar    1  UNL1        0.0043
      6 C         140.7475  141.0125  171.0384 C.ar    1  UNL1        0.0001
      7 C         141.7988  141.8508  170.3736 C.ar    1  UNL1       -0.0003
      8 C         141.8758  141.9093  168.8768 C.ar    1  UNL1       -0.0021
      9 C         140.9016  141.1293  168.0447 C.ar    1  UNL1        0.0089
     10 C         140.7338  140.9922  166.5604 C.3     1  UNL1        0.1750
     11 C         141.5736  141.6608  165.5127 C.2     1  UNL1        0.2451
     12 O         142.4238  140.8351  164.5934 O.2     1  UNL1       -0.2729
     13 N         141.5632  143.1553  165.3843 N.am    1  UNL1       -0.2988
     14 H         141.0052  143.6973  165.9877 H       1  UNL1        0.1498
     15 C         142.4030  143.8240  164.3366 C.3     1  UNL1        0.1164
     16 C         141.7687  144.3198  163.0710 C.ar    1  UNL1       -0.0024
     17 C         142.4455  144.0887  161.7525 C.ar    1  UNL1        0.0005
     18 C         141.8112  144.5846  160.4868 C.ar    1  UNL1        0.0369
     19 C         140.5002  145.3116  160.5397 C.ar    1  UNL1        0.1468
     20 C         139.8235  145.5427  161.8583 C.ar    1  UNL1        0.0369
     21 C         140.4577  145.0468  163.1239 C.ar    1  UNL1        0.0005
     22 O         139.8659  145.8075  159.2741 O.3     1  UNL1       -0.4045
     23 C         140.1578  145.1239  157.9712 C.3     1  UNL1        0.5753
     24 F         140.4497  144.4404  156.6682 F       1  UNL1       -0.1328
     25 F         140.9249  146.3282  157.5113 F       1  UNL1       -0.1328
     26 F         139.3908  143.9197  158.4311 F       1  UNL1       -0.1328
     27 C         139.9443  138.4407  164.9982 C.3     1  UNL1        0.0203
     28 C         139.0608  139.6524  164.9631 C.3     1  UNL1        0.0669
     29 C         138.1773  140.8641  164.9281 C.3     1  UNL1        0.0203
     30 C         138.5428  139.2358  163.6185 C.3     1  UNL1        0.0640
     31 C         139.3796  139.4519  162.3925 C.ar    1  UNL1        0.0606
     32 C         139.9202  140.8167  162.0844 C.ar    1  UNL1        0.0148
     33 C         140.7571  141.0327  160.8584 C.ar    1  UNL1        0.0028
     34 C         141.0533  139.8839  159.9405 C.ar    1  UNL1        0.0207
     35 C         140.5127  138.5190  160.2487 C.ar    1  UNL1        0.0984
     36 N         139.6759  138.3030  161.4746 N.ar    1  UNL1       -0.2481
@<TRIPOS>BOND
     1    27    28    1
     2    28    29    1
     3    28    30    1
     4    30    31    1
     5    31    32   ar
     6    32    33   ar
     7    33    34   ar
     8    34    35   ar
     9    35    36   ar
    10    28     1    1
    11     1     2   am
    12     2     3    2
    13     2     4    1
    14     4     5   ar
    15     5     6   ar
    16     6     7   ar
    17     7     8   ar
    18     8     9   ar
    19     9    10    1
    20    10    11    1
    21    11    12    2
    22    11    13   am
    23    13    15    1
    24    15    16    1
    25    16    17   ar
    26    17    18   ar
    27    18    19   ar
    28    19    22    1
    29    22    23    1
    30    23    24    1
    31    23    25    1
    32    23    26    1
    33    19    20   ar
    34    20    21   ar
    35    36    31   ar
    36    10     1    1
    37    21    16   ar
    38     9     4   ar
    39    13    14    1
@<TRIPOS>MOLECULE
*****
 36 39 0 0 0
SMALL
GASTEIGER

@<TRIPOS>ATOM
      1 N         139.5158  139.3131  160.4481 N.am    1  UNL1       -0.2689
      2 C         139.1968  139.4438  158.9882 C.2     1  UNL1        0.2492
      3 O         137.9674  140.0775  158.4077 O.2     1  UNL1       -0.2699
      4 C         140.3231  138.8297  158.2108 C.ar    1  UNL1        0.0516
      5 C         140.5555  138.6693  156.7376 C.ar    1  UNL1        0.0043
      6 C         141.8029  137.9985  156.2438 C.ar    1  UNL1        0.0001
      7 C         142.8180  137.4882  157.2232 C.ar    1  UNL1       -0.0003
      8 C         142.5857  137.6486  158.6964 C.ar    1  UNL1       -0.0021
      9 C         141.3382  138.3194  159.1901 C.ar    1  UNL1        0.0089
     10 C         140.8393  138.6181  160.5728 C.3     1  UNL1        0.1750
     11 C         141.5407  138.2811  161.8552 C.2     1  UNL1        0.2451
     12 O         141.1576  137.0477  162.6179 O.2     1  UNL1       -0.2729
     13 N         142.6253  139.1776  162.3749 N.am    1  UNL1       -0.2988
     14 H         142.8768  139.9871  161.8743 H       1  UNL1        0.1498
     15 C         143.3267  138.8405  163.6572 C.3     1  UNL1        0.1164
     16 C         143.1452  139.7137  164.8632 C.ar    1  UNL1       -0.0024
     17 C         142.9281  139.0941  166.2119 C.ar    1  UNL1        0.0005
     18 C         142.7465  139.9673  167.4181 C.ar    1  UNL1        0.0369
     19 C         142.7821  141.4601  167.2755 C.ar    1  UNL1        0.1468
     20 C         142.9993  142.0796  165.9267 C.ar    1  UNL1        0.0369
     21 C         143.1808  141.2065  164.7206 C.ar    1  UNL1        0.0005
     22 O         142.6006  142.3333  168.4815 O.3     1  UNL1       -0.4045
     23 C         141.3270  142.2662  169.2710 C.3     1  UNL1        0.5753
     24 F         140.0534  142.1991  170.0606 F       1  UNL1       -0.1328
     25 F         141.9419  141.2399  170.1758 F       1  UNL1       -0.1328
     26 F         140.7120  143.2925  168.3663 F       1  UNL1       -0.1328
     27 C         137.9226  138.4875  161.5795 C.3     1  UNL1        0.0203
     28 C         138.6614  139.7930  161.5837 C.3     1  UNL1        0.0669
     29 C         139.4002  141.0984  161.5879 C.3     1  UNL1        0.0203
     30 C         137.8070  140.2729  162.7194 C.3     1  UNL1        0.0640
     31 C         138.3143  140.1861  164.1283 C.ar    1  UNL1        0.0606
     32 C         138.8335  141.4142  164.8154 C.ar    1  UNL1        0.0148
     33 C         139.3408  141.3274  166.2244 C.ar    1  UNL1        0.0028
     34 C         139.3288  140.0125  166.9462 C.ar    1  UNL1        0.0207
     35 C         138.8096  138.7845  166.2590 C.ar    1  UNL1        0.0984
     36 N         138.3023  138.8712  164.8501 N.ar    1  UNL1       -0.2481
@<TRIPOS>BOND
     1    27    28    1
     2    28    29    1
     3    28    30    1
     4    30    31    1
     5    31    32   ar
     6    32    33   ar
     7    33    34   ar
     8    34    35   ar
     9    35    36   ar
    10    28     1    1
    11     1     2   am
    12     2     3    2
    13     2     4    1
    14     4     5   ar
    15     5     6   ar
    16     6     7   ar
    17     7     8   ar
    18     8     9   ar
    19     9    10    1
    20    10    11    1
    21    11    12    2
    22    11    13   am
    23    13    15    1
    24    15    16    1
    25    16    17   ar
    26    17    18   ar
    27    18    19   ar
    28    19    22    1
    29    22    23    1
    30    23    24    1
    31    23    25    1
    32    23    26    1
    33    19    20   ar
    34    20    21   ar
    35    36    31   ar
    36    10     1    1
    37    21    16   ar
    38     9     4   ar
    39    13    14    1
@<TRIPOS>MOLECULE
*****
 36 39 0 0 0
SMALL
GASTEIGER

@<TRIPOS>ATOM
      1 N         143.2468  142.9337  160.3016 N.am    1  UNL1       -0.2689
      2 C         143.5810  143.1525  158.8558 C.2     1  UNL1        0.2492
      3 O         144.7285  142.5351  158.1129 O.2     1  UNL1       -0.2699
      4 C         142.5662  144.0973  158.2833 C.ar    1  UNL1        0.0516
      5 C         142.3935  144.6724  156.9088 C.ar    1  UNL1        0.0043
      6 C         141.2593  145.6125  156.6263 C.ar    1  UNL1        0.0001
      7 C         140.2979  145.9775  157.7183 C.ar    1  UNL1       -0.0003
      8 C         140.4707  145.4024  159.0928 C.ar    1  UNL1       -0.0021
      9 C         141.6049  144.4624  159.3754 C.ar    1  UNL1        0.0089
     10 C         142.0255  143.7432  160.6227 C.3     1  UNL1        0.1750
     11 C         141.3443  143.8200  161.9569 C.2     1  UNL1        0.2451
     12 O         141.2945  145.1222  162.6997 O.2     1  UNL1       -0.2729
     13 N         140.7129  142.5946  162.5484 N.am    1  UNL1       -0.2988
     14 H         140.7455  141.7399  162.0609 H       1  UNL1        0.1498
     15 C         140.0317  142.6715  163.8826 C.3     1  UNL1        0.1164
     16 C         140.7615  142.2477  165.1227 C.ar    1  UNL1       -0.0024
     17 C         140.0599  141.4231  166.1609 C.ar    1  UNL1        0.0005
     18 C         140.7896  140.9993  167.4011 C.ar    1  UNL1        0.0369
     19 C         142.2209  141.4001  167.6030 C.ar    1  UNL1        0.1468
     20 C         142.9224  142.2248  166.5647 C.ar    1  UNL1        0.0369
     21 C         142.1927  142.6485  165.3246 C.ar    1  UNL1        0.0005
     22 O         142.9507  140.9764  168.8431 O.3     1  UNL1       -0.4045
     23 C         142.5266  139.7387  169.5768 C.3     1  UNL1        0.5753
     24 F         142.1025  138.5010  170.3105 F       1  UNL1       -0.1328
     25 F         142.9783  138.8979  168.4196 F       1  UNL1       -0.1328
     26 F         142.0749  140.5795  170.7340 F       1  UNL1       -0.1328
     27 C         144.4753  143.2754  161.9969 C.3     1  UNL1        0.0203
     28 C         144.0014  142.0589  161.2584 C.3     1  UNL1        0.0669
     29 C         143.5274  140.8423  160.5199 C.3     1  UNL1        0.0203
     30 C         144.7559  141.1841  162.2151 C.3     1  UNL1        0.0640
     31 C         144.0106  140.3024  163.1727 C.ar    1  UNL1        0.0606
     32 C         144.7162  139.7217  164.3621 C.ar    1  UNL1        0.0148
     33 C         143.9708  138.8399  165.3197 C.ar    1  UNL1        0.0028
     34 C         142.5198  138.5389  165.0878 C.ar    1  UNL1        0.0207
     35 C         141.8141  139.1196  163.8983 C.ar    1  UNL1        0.0984
     36 N         142.5595  140.0013  162.9408 N.ar    1  UNL1       -0.2481
@<TRIPOS>BOND
     1    27    28    1
     2    28    29    1
     3    28    30    1
     4    30    31    1
     5    31    32   ar
     6    32    33   ar
     7    33    34   ar
     8    34    35   ar
     9    35    36   ar
    10    28     1    1
    11     1     2   am
    12     2     3    2
    13     2     4    1
    14     4     5   ar
    15     5     6   ar
    16     6     7   ar
    17     7     8   ar
    18     8     9   ar
    19     9    10    1
    20    10    11    1
    21    11    12    2
    22    11    13   am
    23    13    15    1
    24    15    16    1
    25    16    17   ar
    26    17    18   ar
    27    18    19   ar
    28    19    22    1
    29    22    23    1
    30    23    24    1
    31    23    25    1
    32    23    26    1
    33    19    20   ar
    34    20    21   ar
    35    36    31   ar
    36    10     1    1
    37    21    16   ar
    38     9     4   ar
    39    13    14    1
@<TRIPOS>MOLECULE
*****
 36 39 0 0 0
SMALL
GASTEIGER

@<TRIPOS>ATOM
      1 N         139.4411  139.8119  165.9650 N.am    1  UNL1       -0.2689
      2 C         138.8755  139.5360  167.3266 C.2     1  UNL1        0.2492
      3 O         137.8774  138.4693  167.6671 O.2     1  UNL1       -0.2699
      4 C         139.4834  140.5139  168.2880 C.ar    1  UNL1        0.0516
      5 C         139.3014  140.7164  169.7631 C.ar    1  UNL1        0.0043
      6 C         140.0606  141.7993  170.4707 C.ar    1  UNL1        0.0001
      7 C         141.0019  142.6797  169.7033 C.ar    1  UNL1       -0.0003
      8 C         141.1839  142.4772  168.2282 C.ar    1  UNL1       -0.0021
      9 C         140.4246  141.3943  167.5206 C.ar    1  UNL1        0.0089
     10 C         140.3985  140.9604  166.0849 C.3     1  UNL1        0.1750
     11 C         141.1907  141.5684  164.9656 C.2     1  UNL1        0.2451
     12 O         142.5660  141.0564  164.6558 O.2     1  UNL1       -0.2729
     13 N         140.6074  142.6886  164.1562 N.am    1  UNL1       -0.2988
     14 H         139.7047  143.0247  164.3595 H       1  UNL1        0.1498
     15 C         141.3997  143.2966  163.0369 C.3     1  UNL1        0.1164
     16 C         140.8573  143.2792  161.6385 C.ar    1  UNL1       -0.0024
     17 C         139.4341  142.8748  161.3911 C.ar    1  UNL1        0.0005
     18 C         138.8916  142.8573  159.9927 C.ar    1  UNL1        0.0369
     19 C         139.7722  143.2443  158.8417 C.ar    1  UNL1        0.1468
     20 C         141.1954  143.6486  159.0892 C.ar    1  UNL1        0.0369
     21 C         141.7379  143.6661  160.4875 C.ar    1  UNL1        0.0005
     22 O         139.2298  143.2268  157.4434 O.3     1  UNL1       -0.4045
     23 C         138.4036  142.0663  156.9739 C.3     1  UNL1        0.5753
     24 F         137.5773  140.9057  156.5045 F       1  UNL1       -0.1328
     25 F         137.1570  142.8808  157.1545 F       1  UNL1       -0.1328
     26 F         139.6502  141.2518  156.7934 F       1  UNL1       -0.1328
     27 C         140.1217  138.0210  165.0544 C.3     1  UNL1        0.0203
     28 C         139.1078  139.0698  164.7048 C.3     1  UNL1        0.0669
     29 C         138.0940  140.1185  164.3553 C.3     1  UNL1        0.0203
     30 C         138.7746  138.3276  163.4447 C.3     1  UNL1        0.0640
     31 C         139.3670  138.7647  162.1378 C.ar    1  UNL1        0.0606
     32 C         140.7771  139.2734  162.0863 C.ar    1  UNL1        0.0148
     33 C         141.3695  139.7105  160.7794 C.ar    1  UNL1        0.0028
     34 C         140.5517  139.6391  159.5240 C.ar    1  UNL1        0.0207
     35 C         139.1416  139.1304  159.5755 C.ar    1  UNL1        0.0984
     36 N         138.5492  138.6933  160.8823 N.ar    1  UNL1       -0.2481
@<TRIPOS>BOND
     1    27    28    1
     2    28    29    1
     3    28    30    1
     4    30    31    1
     5    31    32   ar
     6    32    33   ar
     7    33    34   ar
     8    34    35   ar
     9    35    36   ar
    10    28     1    1
    11     1     2   am
    12     2     3    2
    13     2     4    1
    14     4     5   ar
    15     5     6   ar
    16     6     7   ar
    17     7     8   ar
    18     8     9   ar
    19     9    10    1
    20    10    11    1
    21    11    12    2
    22    11    13   am
    23    13    15    1
    24    15    16    1
    25    16    17   ar
    26    17    18   ar
    27    18    19   ar
    28    19    22    1
    29    22    23    1
    30    23    24    1
    31    23    25    1
    32    23    26    1
    33    19    20   ar
    34    20    21   ar
    35    36    31   ar
    36    10     1    1
    37    21    16   ar
    38     9     4   ar
    39    13    14    1
@<TRIPOS>MOLECULE
*****
 36 39 0 0 0
SMALL
GASTEIGER

@<TRIPOS>ATOM
      1 N         139.2103  140.8965  159.6346 N.am    1  UNL1       -0.2689
      2 C         139.5461  140.7929  158.1764 C.2     1  UNL1        0.2492
      3 O         139.5164  139.5404  157.3516 O.2     1  UNL1       -0.2699
      4 C         139.9169  142.1617  157.6877 C.ar    1  UNL1        0.0516
      5 C         140.3379  142.6662  156.3393 C.ar    1  UNL1        0.0043
      6 C         140.6522  144.1202  156.1471 C.ar    1  UNL1        0.0001
      7 C         140.5455  145.0698  157.3033 C.ar    1  UNL1       -0.0003
      8 C         140.1246  144.5654  158.6517 C.ar    1  UNL1       -0.0021
      9 C         139.8103  143.1113  158.8439 C.ar    1  UNL1        0.0089
     10 C         139.3736  142.3294  160.0472 C.3     1  UNL1        0.1750
     11 C         139.1410  142.8831  161.4217 C.2     1  UNL1        0.2451
     12 O         137.7685  143.3320  161.8271 O.2     1  UNL1       -0.2729
     13 N         140.2811  142.9879  162.3909 N.am    1  UNL1       -0.2988
     14 H         141.1821  142.6933  162.1249 H       1  UNL1        0.1498
     15 C         140.0485  143.5417  163.7654 C.3     1  UNL1        0.1164
     16 C         140.7810  142.9645  164.9403 C.ar    1  UNL1       -0.0024
     17 C         140.1352  142.9516  166.2941 C.ar    1  UNL1        0.0005
     18 C         140.8677  142.3744  167.4690 C.ar    1  UNL1        0.0369
     19 C         142.2459  141.8101  167.2901 C.ar    1  UNL1        0.1468
     20 C         142.8917  141.8230  165.9363 C.ar    1  UNL1        0.0369
     21 C         142.1593  142.4002  164.7614 C.ar    1  UNL1        0.0005
     22 O         142.9784  141.2329  168.4650 O.3     1  UNL1       -0.4045
     23 C         142.3867  140.0844  169.2271 C.3     1  UNL1        0.5753
     24 F         141.7950  138.9359  169.9892 F       1  UNL1       -0.1328
     25 F         142.4804  140.8783  170.4963 F       1  UNL1       -0.1328
     26 F         142.2930  139.2905  167.9579 F       1  UNL1       -0.1328
     27 C         137.3531  140.0141  160.1561 C.3     1  UNL1        0.0203
     28 C         138.7858  139.7657  160.5241 C.3     1  UNL1        0.0669
     29 C         140.2186  139.5174  160.8922 C.3     1  UNL1        0.0203
     30 C         138.3613  138.6350  161.4137 C.3     1  UNL1        0.0640
     31 C         138.4429  138.7820  162.9042 C.ar    1  UNL1        0.0606
     32 C         138.1042  140.0937  163.5481 C.ar    1  UNL1        0.0148
     33 C         138.1858  140.2407  165.0387 C.ar    1  UNL1        0.0028
     34 C         138.6061  139.0759  165.8853 C.ar    1  UNL1        0.0207
     35 C         138.9447  137.7642  165.2413 C.ar    1  UNL1        0.0984
     36 N         138.8632  137.6172  163.7508 N.ar    1  UNL1       -0.2481
@<TRIPOS>BOND
     1    27    28    1
     2    28    29    1
     3    28    30    1
     4    30    31    1
     5    31    32   ar
     6    32    33   ar
     7    33    34   ar
     8    34    35   ar
     9    35    36   ar
    10    28     1    1
    11     1     2   am
    12     2     3    2
    13     2     4    1
    14     4     5   ar
    15     5     6   ar
    16     6     7   ar
    17     7     8   ar
    18     8     9   ar
    19     9    10    1
    20    10    11    1
    21    11    12    2
    22    11    13   am
    23    13    15    1
    24    15    16    1
    25    16    17   ar
    26    17    18   ar
    27    18    19   ar
    28    19    22    1
    29    22    23    1
    30    23    24    1
    31    23    25    1
    32    23    26    1
    33    19    20   ar
    34    20    21   ar
    35    36    31   ar
    36    10     1    1
    37    21    16   ar
    38     9     4   ar
    39    13    14    1
