@<TRIPOS>MOLECULE
*****
 38 42 0 0 0
SMALL
GASTEIGER

@<TRIPOS>ATOM
      1 C         140.9933  143.7275  163.5834 C.3     1  UNL1        0.0080
      2 C         142.1640  142.7971  163.7024 C.3     1  UNL1        0.0177
      3 C         143.0135  142.5033  162.5016 C.3     1  UNL1        0.0721
      4 N         142.6925  143.1398  161.1818 N.3     1  UNL1       -0.2736
      5 C         141.5220  144.0701  161.0628 C.3     1  UNL1        0.0776
      6 C         140.6723  144.3640  162.2636 C.3     1  UNL1        0.0525
      7 C         143.5421  142.8460  159.9811 C.3     1  UNL1        0.0582
      8 C         144.7497  141.9958  159.7186 C.3     1  UNL1        0.0204
      9 C         144.7437  142.4304  158.2829 C.3     1  UNL1        0.0273
     10 C         143.5361  143.2806  158.5454 C.3     1  UNL1        0.0204
     11 C         145.5933  142.1366  157.0821 C.ar    1  UNL1        0.0073
     12 C         145.0461  141.3020  155.9623 C.ar    1  UNL1        0.0276
     13 C         145.8956  141.0081  154.7615 C.ar    1  UNL1        0.1400
     14 F         145.3484  140.1736  153.6417 F       1  UNL1       -0.2042
     15 C         147.2924  141.5489  154.6806 C.ar    1  UNL1        0.0319
     16 C         147.8397  142.3835  155.8005 C.ar    1  UNL1        0.0316
     17 C         146.9901  142.6773  157.0012 C.ar    1  UNL1        0.1363
     18 F         147.5373  143.5118  158.1210 F       1  UNL1       -0.2045
     19 C         139.5018  145.2943  162.1445 C.2     1  UNL1        0.0513
     20 O         139.7265  146.7498  161.8600 O.co2   1  UNL1       -0.5491
     21 O         138.1065  144.7692  162.3101 O.co2   1  UNL1       -0.5491
     22 C         140.1437  144.0213  164.7841 C.3     1  UNL1        0.0033
     23 C         139.4935  142.8979  165.5358 C.3     1  UNL1        0.0338
     24 C         138.4376  142.0639  164.8727 C.3     1  UNL1        0.1328
     25 O         137.2306  142.7211  164.2717 O.3     1  UNL1       -0.3801
     26 H         137.2889  143.6811  164.3974 H       1  UNL1        0.2108
     27 C         139.9669  140.1119  161.1176 C.ar    1  UNL1        0.1388
     28 C         140.1181  138.6208  161.0556 C.ar    1  UNL1        0.0384
     29 C         139.7595  137.7804  162.2452 C.ar    1  UNL1        0.0222
     30 C         139.2497  138.4311  163.4969 C.ar    1  UNL1        0.0813
     31 N         138.8911  137.5907  164.6865 N.ar    1  UNL1       -0.2439
     32 C         138.3814  138.2414  165.9381 C.ar    1  UNL1        0.0986
     33 C         138.2302  139.7325  166.0003 C.ar    1  UNL1        0.0187
     34 C         138.5888  140.5729  164.8106 C.ar    1  UNL1        0.0073
     35 C         139.0986  139.9221  163.5589 C.ar    1  UNL1        0.0190
     36 C         139.4571  140.7625  162.3693 C.ar    1  UNL1        0.0382
     37 C         141.0816  140.3470  158.7827 C.3     1  UNL1        0.2525
     38 O         140.3255  140.9522  159.9280 O.3     1  UNL1       -0.4714
@<TRIPOS>UNITY_ATOM_ATTR
20 1
charge -1
@<TRIPOS>BOND
     1    37    38    1
     2    38    27    1
     3    27    28   ar
     4    28    29   ar
     5    29    30   ar
     6    30    31   ar
     7    31    32   ar
     8    32    33   ar
     9    33    34   ar
    10    34    24    1
    11    24    25    1
    12    24    23    1
    13    23    22    1
    14     1    22    1
    15     1     2    1
    16     2     3    1
    17     3     4    1
    18     4     7    1
    19     7     8    1
    20     8     9    1
    21     9    11    1
    22    11    12   ar
    23    12    13   ar
    24    13    14    1
    25    13    15   ar
    26    15    16   ar
    27    16    17   ar
    28    17    18    1
    29     9    10    1
    30     4     5    1
    31     5     6    1
    32     6    19    1
    33    19    20   ar
    34    19    21   ar
    35    34    35   ar
    36    35    36   ar
    37    36    27   ar
    38    35    30   ar
    39     6     1    1
    40    10     7    1
    41    17    11   ar
    42    25    26    1
@<TRIPOS>MOLECULE
*****
 38 42 0 0 0
SMALL
GASTEIGER

@<TRIPOS>ATOM
      1 C         143.8046  141.6184  163.9465 C.3     1  UNL1        0.0080
      2 C         143.9702  140.1294  164.0210 C.3     1  UNL1        0.0177
      3 C         143.6813  139.2815  162.8179 C.3     1  UNL1        0.0721
      4 N         143.2267  139.9225  161.5403 N.3     1  UNL1       -0.2736
      5 C         143.0611  141.4114  161.4657 C.3     1  UNL1        0.0776
      6 C         143.3500  142.2594  162.6688 C.3     1  UNL1        0.0525
      7 C         142.9378  139.0746  160.3371 C.3     1  UNL1        0.0582
      8 C         142.6134  139.3498  158.8987 C.3     1  UNL1        0.0204
      9 C         142.5291  137.8754  158.6356 C.3     1  UNL1        0.0273
     10 C         142.8536  137.6002  160.0740 C.3     1  UNL1        0.0204
     11 C         142.2402  137.0275  157.4324 C.ar    1  UNL1        0.0073
     12 C         143.2198  135.9758  157.0034 C.ar    1  UNL1        0.0276
     13 C         142.9309  135.1278  155.8003 C.ar    1  UNL1        0.1400
     14 F         143.9105  134.0760  155.3712 F       1  UNL1       -0.2042
     15 C         141.6624  135.3316  155.0262 C.ar    1  UNL1        0.0319
     16 C         140.6827  136.3835  155.4552 C.ar    1  UNL1        0.0316
     17 C         140.9717  137.2314  156.6584 C.ar    1  UNL1        0.1363
     18 F         139.9920  138.2831  157.0874 F       1  UNL1       -0.2045
     19 C         143.1843  143.7483  162.5943 C.2     1  UNL1        0.0513
     20 O         141.8137  144.3545  162.6564 O.co2   1  UNL1       -0.5491
     21 O         144.3893  144.6311  162.4576 O.co2   1  UNL1       -0.5491
     22 C         144.0935  142.4663  165.1496 C.3     1  UNL1        0.0033
     23 C         143.1734  142.4267  166.3335 C.3     1  UNL1        0.0338
     24 C         141.6888  142.5035  166.1326 C.3     1  UNL1        0.1328
     25 O         141.1032  143.5855  165.2745 O.3     1  UNL1       -0.3801
     26 H         141.8158  144.1455  164.9290 H       1  UNL1        0.2108
     27 C         139.6572  139.3434  163.6555 C.ar    1  UNL1        0.1388
     28 C         138.7584  138.3382  164.3125 C.ar    1  UNL1        0.0384
     29 C         138.5368  138.3864  165.7953 C.ar    1  UNL1        0.0222
     30 C         139.2140  139.4397  166.6210 C.ar    1  UNL1        0.0813
     31 N         138.9924  139.4879  168.1037 N.ar    1  UNL1       -0.2439
     32 C         139.6696  140.5412  168.9294 C.ar    1  UNL1        0.0986
     33 C         140.5685  141.5465  168.2724 C.ar    1  UNL1        0.0187
     34 C         140.7900  141.4983  166.7896 C.ar    1  UNL1        0.0073
     35 C         140.1128  140.4449  165.9639 C.ar    1  UNL1        0.0190
     36 C         140.3344  140.3967  164.4812 C.ar    1  UNL1        0.0382
     37 C         139.4419  138.0940  161.3877 C.3     1  UNL1        0.2525
     38 O         139.8788  139.2952  162.1727 O.3     1  UNL1       -0.4714
@<TRIPOS>UNITY_ATOM_ATTR
20 1
charge -1
@<TRIPOS>BOND
     1    37    38    1
     2    38    27    1
     3    27    28   ar
     4    28    29   ar
     5    29    30   ar
     6    30    31   ar
     7    31    32   ar
     8    32    33   ar
     9    33    34   ar
    10    34    24    1
    11    24    25    1
    12    24    23    1
    13    23    22    1
    14     1    22    1
    15     1     2    1
    16     2     3    1
    17     3     4    1
    18     4     7    1
    19     7     8    1
    20     8     9    1
    21     9    11    1
    22    11    12   ar
    23    12    13   ar
    24    13    14    1
    25    13    15   ar
    26    15    16   ar
    27    16    17   ar
    28    17    18    1
    29     9    10    1
    30     4     5    1
    31     5     6    1
    32     6    19    1
    33    19    20   ar
    34    19    21   ar
    35    34    35   ar
    36    35    36   ar
    37    36    27   ar
    38    35    30   ar
    39     6     1    1
    40    10     7    1
    41    17    11   ar
    42    25    26    1
@<TRIPOS>MOLECULE
*****
 38 42 0 0 0
SMALL
GASTEIGER

@<TRIPOS>ATOM
      1 C         139.6757  142.9122  160.1995 C.3     1  UNL1        0.0080
      2 C         139.4885  141.5219  160.7308 C.3     1  UNL1        0.0177
      3 C         139.7146  141.2384  162.1862 C.3     1  UNL1        0.0721
      4 N         140.1280  142.3451  163.1105 N.3     1  UNL1       -0.2736
      5 C         140.3153  143.7353  162.5793 C.3     1  UNL1        0.0776
      6 C         140.0891  144.0189  161.1238 C.3     1  UNL1        0.0525
      7 C         140.3542  142.0616  164.5660 C.3     1  UNL1        0.0582
      8 C         141.4966  142.2533  165.5189 C.3     1  UNL1        0.0204
      9 C         140.6741  141.6606  166.6245 C.3     1  UNL1        0.0273
     10 C         139.5316  141.4689  165.6715 C.3     1  UNL1        0.0204
     11 C         140.9002  141.3771  168.0799 C.ar    1  UNL1        0.0073
     12 C         141.4253  140.0397  168.5107 C.ar    1  UNL1        0.0276
     13 C         141.6515  139.7561  169.9663 C.ar    1  UNL1        0.1400
     14 F         142.1765  138.4187  170.3970 F       1  UNL1       -0.2042
     15 C         141.3526  140.8100  170.9909 C.ar    1  UNL1        0.0319
     16 C         140.8275  142.1475  170.5601 C.ar    1  UNL1        0.0316
     17 C         140.6013  142.4310  169.1046 C.ar    1  UNL1        0.1363
     18 F         140.0763  143.7684  168.6738 F       1  UNL1       -0.2045
     19 C         140.2764  145.4091  160.5926 C.2     1  UNL1        0.0513
     20 O         139.2962  146.4868  160.9498 O.co2   1  UNL1       -0.5491
     21 O         141.4439  145.7216  159.7042 O.co2   1  UNL1       -0.5491
     22 C         139.4496  143.1957  158.7441 C.3     1  UNL1        0.0033
     23 C         140.4214  142.6868  157.7211 C.3     1  UNL1        0.0338
     24 C         141.8926  142.6971  158.0138 C.3     1  UNL1        0.1328
     25 O         142.7248  143.8854  157.6327 O.3     1  UNL1       -0.3801
     26 H         142.1614  144.5526  157.2103 H       1  UNL1        0.2108
     27 C         144.1339  143.2567  161.8755 C.ar    1  UNL1        0.1388
     28 C         144.7728  142.0787  162.5494 C.ar    1  UNL1        0.0384
     29 C         144.6645  140.7141  161.9360 C.ar    1  UNL1        0.0222
     30 C         143.9175  140.5276  160.6487 C.ar    1  UNL1        0.0813
     31 N         143.8092  139.1630  160.0353 N.ar    1  UNL1       -0.2439
     32 C         143.0621  138.9765  158.7481 C.ar    1  UNL1        0.0986
     33 C         142.4232  140.1545  158.0742 C.ar    1  UNL1        0.0187
     34 C         142.5314  141.5191  158.6876 C.ar    1  UNL1        0.0073
     35 C         143.2786  141.7056  159.9749 C.ar    1  UNL1        0.0190
     36 C         143.3868  143.0702  160.5883 C.ar    1  UNL1        0.0382
     37 C         143.6964  144.8710  163.8636 C.3     1  UNL1        0.2525
     38 O         144.2421  144.6213  162.4889 O.3     1  UNL1       -0.4714
@<TRIPOS>UNITY_ATOM_ATTR
20 1
charge -1
@<TRIPOS>BOND
     1    37    38    1
     2    38    27    1
     3    27    28   ar
     4    28    29   ar
     5    29    30   ar
     6    30    31   ar
     7    31    32   ar
     8    32    33   ar
     9    33    34   ar
    10    34    24    1
    11    24    25    1
    12    24    23    1
    13    23    22    1
    14     1    22    1
    15     1     2    1
    16     2     3    1
    17     3     4    1
    18     4     7    1
    19     7     8    1
    20     8     9    1
    21     9    11    1
    22    11    12   ar
    23    12    13   ar
    24    13    14    1
    25    13    15   ar
    26    15    16   ar
    27    16    17   ar
    28    17    18    1
    29     9    10    1
    30     4     5    1
    31     5     6    1
    32     6    19    1
    33    19    20   ar
    34    19    21   ar
    35    34    35   ar
    36    35    36   ar
    37    36    27   ar
    38    35    30   ar
    39     6     1    1
    40    10     7    1
    41    17    11   ar
    42    25    26    1
@<TRIPOS>MOLECULE
*****
 38 42 0 0 0
SMALL
GASTEIGER

@<TRIPOS>ATOM
      1 C         143.3594  143.0557  161.8324 C.3     1  UNL1        0.0080
      2 C         142.5193  143.1900  160.5970 C.3     1  UNL1        0.0177
      3 C         142.3364  142.0148  159.6830 C.3     1  UNL1        0.0721
      4 N         142.9936  140.7053  160.0043 N.3     1  UNL1       -0.2736
      5 C         143.8337  140.5710  161.2397 C.3     1  UNL1        0.0776
      6 C         144.0166  141.7462  162.1538 C.3     1  UNL1        0.0525
      7 C         142.8107  139.5301  159.0904 C.3     1  UNL1        0.0582
      8 C         143.0439  139.2752  157.6307 C.3     1  UNL1        0.0204
      9 C         142.5520  137.8680  157.7977 C.3     1  UNL1        0.0273
     10 C         142.3188  138.1229  159.2574 C.3     1  UNL1        0.0204
     11 C         142.3691  136.6928  156.8837 C.ar    1  UNL1        0.0073
     12 C         143.4303  135.6361  156.7993 C.ar    1  UNL1        0.0276
     13 C         143.2474  134.4608  155.8852 C.ar    1  UNL1        0.1400
     14 F         144.3087  133.4041  155.8008 F       1  UNL1       -0.2042
     15 C         142.0033  134.3423  155.0557 C.ar    1  UNL1        0.0319
     16 C         140.9421  135.3991  155.1402 C.ar    1  UNL1        0.0316
     17 C         141.1250  136.5743  156.0542 C.ar    1  UNL1        0.1363
     18 F         140.0638  137.6310  156.1386 F       1  UNL1       -0.2045
     19 C         144.8567  141.6119  163.3891 C.2     1  UNL1        0.0513
     20 O         146.3522  141.6699  163.2890 O.co2   1  UNL1       -0.5491
     21 O         144.2014  141.4196  164.7246 O.co2   1  UNL1       -0.5491
     22 C         143.5423  144.2309  162.7464 C.3     1  UNL1        0.0033
     23 C         142.4024  144.7015  163.6002 C.3     1  UNL1        0.0338
     24 C         141.5052  143.7033  164.2702 C.3     1  UNL1        0.1328
     25 O         141.9781  142.9706  165.4907 O.3     1  UNL1       -0.3801
     26 H         142.8780  143.2574  165.7116 H       1  UNL1        0.2108
     27 C         140.4350  139.5929  162.7840 C.ar    1  UNL1        0.1388
     28 C         139.0652  139.3275  162.2336 C.ar    1  UNL1        0.0384
     29 C         138.0520  140.4323  162.1786 C.ar    1  UNL1        0.0222
     30 C         138.4087  141.8024  162.6740 C.ar    1  UNL1        0.0813
     31 N         137.3956  142.9072  162.6190 N.ar    1  UNL1       -0.2439
     32 C         137.7523  144.2773  163.1144 C.ar    1  UNL1        0.0986
     33 C         139.1222  144.5427  163.6648 C.ar    1  UNL1        0.0187
     34 C         140.1354  143.4380  163.7198 C.ar    1  UNL1        0.0073
     35 C         139.7786  142.0678  163.2244 C.ar    1  UNL1        0.0190
     36 C         140.7917  140.9630  163.2794 C.ar    1  UNL1        0.0382
     37 C         141.0738  137.1553  163.4162 C.3     1  UNL1        0.2525
     38 O         141.4482  138.4881  162.8390 O.3     1  UNL1       -0.4714
@<TRIPOS>UNITY_ATOM_ATTR
20 1
charge -1
@<TRIPOS>BOND
     1    37    38    1
     2    38    27    1
     3    27    28   ar
     4    28    29   ar
     5    29    30   ar
     6    30    31   ar
     7    31    32   ar
     8    32    33   ar
     9    33    34   ar
    10    34    24    1
    11    24    25    1
    12    24    23    1
    13    23    22    1
    14     1    22    1
    15     1     2    1
    16     2     3    1
    17     3     4    1
    18     4     7    1
    19     7     8    1
    20     8     9    1
    21     9    11    1
    22    11    12   ar
    23    12    13   ar
    24    13    14    1
    25    13    15   ar
    26    15    16   ar
    27    16    17   ar
    28    17    18    1
    29     9    10    1
    30     4     5    1
    31     5     6    1
    32     6    19    1
    33    19    20   ar
    34    19    21   ar
    35    34    35   ar
    36    35    36   ar
    37    36    27   ar
    38    35    30   ar
    39     6     1    1
    40    10     7    1
    41    17    11   ar
    42    25    26    1
@<TRIPOS>MOLECULE
*****
 38 42 0 0 0
SMALL
GASTEIGER

@<TRIPOS>ATOM
      1 C         139.7281  142.6463  160.2221 C.3     1  UNL1        0.0080
      2 C         139.4905  141.2917  160.8211 C.3     1  UNL1        0.0177
      3 C         139.8009  141.0465  162.2680 C.3     1  UNL1        0.0721
      4 N         140.3488  142.1559  163.1159 N.3     1  UNL1       -0.2736
      5 C         140.5864  143.5104  162.5170 C.3     1  UNL1        0.0776
      6 C         140.2761  143.7556  161.0700 C.3     1  UNL1        0.0525
      7 C         140.6592  141.9108  164.5628 C.3     1  UNL1        0.0582
      8 C         140.3252  142.6025  165.8512 C.3     1  UNL1        0.0204
      9 C         141.0980  141.5641  166.6092 C.3     1  UNL1        0.0273
     10 C         141.4320  140.8724  165.3208 C.3     1  UNL1        0.0204
     11 C         141.4084  141.3189  168.0561 C.ar    1  UNL1        0.0073
     12 C         140.4420  140.5543  168.9112 C.ar    1  UNL1        0.0276
     13 C         140.7523  140.3091  170.3582 C.ar    1  UNL1        0.1400
     14 F         139.7859  139.5445  171.2134 F       1  UNL1       -0.2042
     15 C         142.0290  140.8286  170.9499 C.ar    1  UNL1        0.0319
     16 C         142.9954  141.5933  170.0947 C.ar    1  UNL1        0.0316
     17 C         142.6851  141.8384  168.6478 C.ar    1  UNL1        0.1363
     18 F         143.6515  142.6030  167.7926 F       1  UNL1       -0.2045
     19 C         140.5137  145.1101  160.4711 C.2     1  UNL1        0.0513
     20 O         139.5079  146.2050  160.6698 O.co2   1  UNL1       -0.5491
     21 O         141.7572  145.3698  159.6734 O.co2   1  UNL1       -0.5491
     22 C         139.4178  142.8914  158.7752 C.3     1  UNL1        0.0033
     23 C         140.3834  142.4495  157.7157 C.3     1  UNL1        0.0338
     24 C         141.7984  142.1138  158.0835 C.3     1  UNL1        0.1328
     25 O         142.8097  143.2089  158.2511 O.3     1  UNL1       -0.3801
     26 H         142.3875  144.0667  158.0874 H       1  UNL1        0.2108
     27 C         143.7534  140.8449  161.9328 C.ar    1  UNL1        0.1388
     28 C         144.1570  139.4142  162.1329 C.ar    1  UNL1        0.0384
     29 C         143.9090  138.4064  161.0499 C.ar    1  UNL1        0.0222
     30 C         143.2574  138.8294  159.7668 C.ar    1  UNL1        0.0813
     31 N         143.0094  137.8216  158.6838 N.ar    1  UNL1       -0.2439
     32 C         142.3577  138.2446  157.4007 C.ar    1  UNL1        0.0986
     33 C         141.9540  139.6754  157.2005 C.ar    1  UNL1        0.0187
     34 C         142.2020  140.6831  158.2835 C.ar    1  UNL1        0.0073
     35 C         142.8537  140.2601  159.5667 C.ar    1  UNL1        0.0190
     36 C         143.1017  141.2678  160.6497 C.ar    1  UNL1        0.0382
     37 C         145.3853  142.0401  163.5632 C.3     1  UNL1        0.2525
     38 O         144.0014  141.8526  163.0158 O.3     1  UNL1       -0.4714
@<TRIPOS>UNITY_ATOM_ATTR
20 1
charge -1
@<TRIPOS>BOND
     1    37    38    1
     2    38    27    1
     3    27    28   ar
     4    28    29   ar
     5    29    30   ar
     6    30    31   ar
     7    31    32   ar
     8    32    33   ar
     9    33    34   ar
    10    34    24    1
    11    24    25    1
    12    24    23    1
    13    23    22    1
    14     1    22    1
    15     1     2    1
    16     2     3    1
    17     3     4    1
    18     4     7    1
    19     7     8    1
    20     8     9    1
    21     9    11    1
    22    11    12   ar
    23    12    13   ar
    24    13    14    1
    25    13    15   ar
    26    15    16   ar
    27    16    17   ar
    28    17    18    1
    29     9    10    1
    30     4     5    1
    31     5     6    1
    32     6    19    1
    33    19    20   ar
    34    19    21   ar
    35    34    35   ar
    36    35    36   ar
    37    36    27   ar
    38    35    30   ar
    39     6     1    1
    40    10     7    1
    41    17    11   ar
    42    25    26    1
@<TRIPOS>MOLECULE
*****
 38 42 0 0 0
SMALL
GASTEIGER

@<TRIPOS>ATOM
      1 C         139.9231  140.4211  162.9720 C.3     1  UNL1        0.0080
      2 C         141.3464  139.9806  163.1469 C.3     1  UNL1        0.0177
      3 C         142.3320  140.1687  162.0320 C.3     1  UNL1        0.0721
      4 N         141.8945  140.7972  160.7422 N.3     1  UNL1       -0.2736
      5 C         140.4714  141.2377  160.5673 C.3     1  UNL1        0.0776
      6 C         139.4856  141.0496  161.6822 C.3     1  UNL1        0.0525
      7 C         142.8802  140.9853  159.6273 C.3     1  UNL1        0.0582
      8 C         143.9135  140.1207  158.9679 C.3     1  UNL1        0.0204
      9 C         144.2742  141.2513  158.0504 C.3     1  UNL1        0.0273
     10 C         143.2409  142.1159  158.7098 C.3     1  UNL1        0.0204
     11 C         145.2598  141.4394  156.9355 C.ar    1  UNL1        0.0073
     12 C         145.0769  140.7044  155.6409 C.ar    1  UNL1        0.0276
     13 C         146.0626  140.8924  154.5259 C.ar    1  UNL1        0.1400
     14 F         145.8796  140.1574  153.2312 F       1  UNL1       -0.2042
     15 C         147.2311  141.8155  154.7056 C.ar    1  UNL1        0.0319
     16 C         147.4140  142.5506  156.0004 C.ar    1  UNL1        0.0316
     17 C         146.4284  142.3625  157.1153 C.ar    1  UNL1        0.1363
     18 F         146.6113  143.0975  158.4100 F       1  UNL1       -0.2045
     19 C         138.0625  141.4900  161.5074 C.2     1  UNL1        0.0513
     20 O         137.7044  142.9404  161.6420 O.co2   1  UNL1       -0.5491
     21 O         136.9975  140.4801  161.1979 O.co2   1  UNL1       -0.5491
     22 C         138.9375  140.2330  164.0869 C.3     1  UNL1        0.0033
     23 C         138.5466  141.3982  164.9469 C.3     1  UNL1        0.0338
     24 C         139.3555  142.6609  164.9119 C.3     1  UNL1        0.1328
     25 O         138.7618  143.9165  164.3454 O.3     1  UNL1       -0.3801
     26 H         137.8554  143.7402  164.0485 H       1  UNL1        0.2108
     27 C         142.7303  144.1527  162.3360 C.ar    1  UNL1        0.1388
     28 C         144.1329  144.1598  162.8676 C.ar    1  UNL1        0.0384
     29 C         144.4106  143.6697  164.2578 C.ar    1  UNL1        0.0222
     30 C         143.2857  143.1724  165.1164 C.ar    1  UNL1        0.0813
     31 N         143.5634  142.6823  166.5066 N.ar    1  UNL1       -0.2439
     32 C         142.4385  142.1850  167.3652 C.ar    1  UNL1        0.0986
     33 C         141.0358  142.1779  166.8337 C.ar    1  UNL1        0.0187
     34 C         140.7581  142.6680  165.4435 C.ar    1  UNL1        0.0073
     35 C         141.8831  143.1653  164.5849 C.ar    1  UNL1        0.0190
     36 C         141.6054  143.6554  163.1947 C.ar    1  UNL1        0.0382
     37 C         141.0486  144.9719  160.5331 C.3     1  UNL1        0.2525
     38 O         142.4526  144.6428  160.9458 O.3     1  UNL1       -0.4714
@<TRIPOS>UNITY_ATOM_ATTR
20 1
charge -1
@<TRIPOS>BOND
     1    37    38    1
     2    38    27    1
     3    27    28   ar
     4    28    29   ar
     5    29    30   ar
     6    30    31   ar
     7    31    32   ar
     8    32    33   ar
     9    33    34   ar
    10    34    24    1
    11    24    25    1
    12    24    23    1
    13    23    22    1
    14     1    22    1
    15     1     2    1
    16     2     3    1
    17     3     4    1
    18     4     7    1
    19     7     8    1
    20     8     9    1
    21     9    11    1
    22    11    12   ar
    23    12    13   ar
    24    13    14    1
    25    13    15   ar
    26    15    16   ar
    27    16    17   ar
    28    17    18    1
    29     9    10    1
    30     4     5    1
    31     5     6    1
    32     6    19    1
    33    19    20   ar
    34    19    21   ar
    35    34    35   ar
    36    35    36   ar
    37    36    27   ar
    38    35    30   ar
    39     6     1    1
    40    10     7    1
    41    17    11   ar
    42    25    26    1
@<TRIPOS>MOLECULE
*****
 38 42 0 0 0
SMALL
GASTEIGER

@<TRIPOS>ATOM
      1 C         143.8799  142.3694  160.6566 C.3     1  UNL1        0.0080
      2 C         144.1750  143.4934  161.6051 C.3     1  UNL1        0.0177
      3 C         143.7511  143.3944  163.0405 C.3     1  UNL1        0.0721
      4 N         143.0320  142.1714  163.5275 N.3     1  UNL1       -0.2736
      5 C         142.7368  141.0474  162.5791 C.3     1  UNL1        0.0776
      6 C         143.1608  141.1464  161.1436 C.3     1  UNL1        0.0525
      7 C         142.6080  142.0724  164.9629 C.3     1  UNL1        0.0582
      8 C         141.3533  141.6566  165.6720 C.3     1  UNL1        0.0204
      9 C         142.0084  141.9323  166.9929 C.3     1  UNL1        0.0273
     10 C         143.2631  142.3481  166.2838 C.3     1  UNL1        0.0204
     11 C         141.5845  141.8333  168.4283 C.ar    1  UNL1        0.0073
     12 C         140.6440  142.8500  169.0044 C.ar    1  UNL1        0.0276
     13 C         140.2201  142.7510  170.4399 C.ar    1  UNL1        0.1400
     14 F         139.2796  143.7677  171.0160 F       1  UNL1       -0.2042
     15 C         140.7365  141.6353  171.2992 C.ar    1  UNL1        0.0319
     16 C         141.6770  140.6186  170.7231 C.ar    1  UNL1        0.0316
     17 C         142.1009  140.7176  169.2877 C.ar    1  UNL1        0.1363
     18 F         143.0414  139.7009  168.7116 F       1  UNL1       -0.2045
     19 C         142.8656  140.0224  160.1952 C.2     1  UNL1        0.0513
     20 O         141.4459  139.6960  159.8378 O.co2   1  UNL1       -0.5491
     21 O         143.9902  139.2249  159.6042 O.co2   1  UNL1       -0.5491
     22 C         144.3038  142.4684  159.2212 C.3     1  UNL1        0.0033
     23 C         143.5004  143.2898  158.2569 C.3     1  UNL1        0.0338
     24 C         142.2001  143.8982  158.6918 C.3     1  UNL1        0.1328
     25 O         142.1425  145.3456  159.0814 O.3     1  UNL1       -0.3801
     26 H         143.0252  145.7387  158.9965 H       1  UNL1        0.2108
     27 C         139.7482  143.7103  162.4604 C.ar    1  UNL1        0.1388
     28 C         138.5056  142.8714  162.5056 C.ar    1  UNL1        0.0384
     29 C         138.0802  142.0952  161.2946 C.ar    1  UNL1        0.0222
     30 C         138.8975  142.1578  160.0384 C.ar    1  UNL1        0.0813
     31 N         138.4722  141.3815  158.8274 N.ar    1  UNL1       -0.2439
     32 C         139.2895  141.4442  157.5712 C.ar    1  UNL1        0.0986
     33 C         140.5322  142.2831  157.5260 C.ar    1  UNL1        0.0187
     34 C         140.9575  143.0594  158.7370 C.ar    1  UNL1        0.0073
     35 C         140.1401  142.9967  159.9932 C.ar    1  UNL1        0.0190
     36 C         140.5655  143.7729  161.2042 C.ar    1  UNL1        0.0382
     37 C         139.1810  144.7904  164.7542 C.3     1  UNL1        0.2525
     38 O         140.1735  144.4865  163.6714 O.3     1  UNL1       -0.4714
@<TRIPOS>UNITY_ATOM_ATTR
20 1
charge -1
@<TRIPOS>BOND
     1    37    38    1
     2    38    27    1
     3    27    28   ar
     4    28    29   ar
     5    29    30   ar
     6    30    31   ar
     7    31    32   ar
     8    32    33   ar
     9    33    34   ar
    10    34    24    1
    11    24    25    1
    12    24    23    1
    13    23    22    1
    14     1    22    1
    15     1     2    1
    16     2     3    1
    17     3     4    1
    18     4     7    1
    19     7     8    1
    20     8     9    1
    21     9    11    1
    22    11    12   ar
    23    12    13   ar
    24    13    14    1
    25    13    15   ar
    26    15    16   ar
    27    16    17   ar
    28    17    18    1
    29     9    10    1
    30     4     5    1
    31     5     6    1
    32     6    19    1
    33    19    20   ar
    34    19    21   ar
    35    34    35   ar
    36    35    36   ar
    37    36    27   ar
    38    35    30   ar
    39     6     1    1
    40    10     7    1
    41    17    11   ar
    42    25    26    1
@<TRIPOS>MOLECULE
*****
 38 42 0 0 0
SMALL
GASTEIGER

@<TRIPOS>ATOM
      1 C         140.8141  143.6555  163.6940 C.3     1  UNL1        0.0080
      2 C         142.2860  143.4318  163.8776 C.3     1  UNL1        0.0177
      3 C         143.1541  143.1401  162.6897 C.3     1  UNL1        0.0721
      4 N         142.5505  143.0721  161.3182 N.3     1  UNL1       -0.2736
      5 C         141.0787  143.2958  161.1346 C.3     1  UNL1        0.0776
      6 C         140.2105  143.5875  162.3225 C.3     1  UNL1        0.0525
      7 C         143.4186  142.7803  160.1303 C.3     1  UNL1        0.0582
      8 C         143.4210  143.1990  158.6899 C.3     1  UNL1        0.0204
      9 C         144.6464  142.3678  158.4502 C.3     1  UNL1        0.0273
     10 C         144.6441  141.9492  159.8906 C.3     1  UNL1        0.0204
     11 C         145.5146  142.0761  157.2623 C.ar    1  UNL1        0.0073
     12 C         145.0018  141.2041  156.1547 C.ar    1  UNL1        0.0276
     13 C         145.8700  140.9123  154.9667 C.ar    1  UNL1        0.1400
     14 F         145.3572  140.0404  153.8592 F       1  UNL1       -0.2042
     15 C         147.2509  141.4926  154.8864 C.ar    1  UNL1        0.0319
     16 C         147.7636  142.3646  155.9940 C.ar    1  UNL1        0.0316
     17 C         146.8955  142.6563  157.1819 C.ar    1  UNL1        0.1363
     18 F         147.4082  143.5282  158.2895 F       1  UNL1       -0.2045
     19 C         138.7387  143.8113  162.1390 C.2     1  UNL1        0.0513
     20 O         138.1709  145.1952  162.2499 O.co2   1  UNL1       -0.5491
     21 O         137.8347  142.6511  161.8445 O.co2   1  UNL1       -0.5491
     22 C         139.9460  143.9472  164.8819 C.3     1  UNL1        0.0033
     23 C         138.7379  143.1008  165.1539 C.3     1  UNL1        0.0338
     24 C         138.8439  141.6052  165.1068 C.3     1  UNL1        0.1328
     25 O         137.8583  140.8084  164.3045 O.3     1  UNL1       -0.3801
     26 H         137.2243  141.4090  163.8824 H       1  UNL1        0.2108
     27 C         142.0738  139.4075  162.8735 C.ar    1  UNL1        0.1388
     28 C         143.1654  138.7088  163.6286 C.ar    1  UNL1        0.0384
     29 C         143.1804  138.7428  165.1282 C.ar    1  UNL1        0.0222
     30 C         142.1038  139.4753  165.8726 C.ar    1  UNL1        0.0813
     31 N         142.1188  139.5092  167.3721 N.ar    1  UNL1       -0.2439
     32 C         141.0422  140.2418  168.1166 C.ar    1  UNL1        0.0986
     33 C         139.9505  140.9405  167.3614 C.ar    1  UNL1        0.0187
     34 C         139.9355  140.9066  165.8619 C.ar    1  UNL1        0.0073
     35 C         141.0122  140.1740  165.1175 C.ar    1  UNL1        0.0190
     36 C         140.9972  140.1401  163.6179 C.ar    1  UNL1        0.0382
     37 C         143.1327  138.6370  160.6297 C.3     1  UNL1        0.2525
     38 O         142.0588  139.3736  161.3740 O.3     1  UNL1       -0.4714
@<TRIPOS>UNITY_ATOM_ATTR
20 1
charge -1
@<TRIPOS>BOND
     1    37    38    1
     2    38    27    1
     3    27    28   ar
     4    28    29   ar
     5    29    30   ar
     6    30    31   ar
     7    31    32   ar
     8    32    33   ar
     9    33    34   ar
    10    34    24    1
    11    24    25    1
    12    24    23    1
    13    23    22    1
    14     1    22    1
    15     1     2    1
    16     2     3    1
    17     3     4    1
    18     4     7    1
    19     7     8    1
    20     8     9    1
    21     9    11    1
    22    11    12   ar
    23    12    13   ar
    24    13    14    1
    25    13    15   ar
    26    15    16   ar
    27    16    17   ar
    28    17    18    1
    29     9    10    1
    30     4     5    1
    31     5     6    1
    32     6    19    1
    33    19    20   ar
    34    19    21   ar
    35    34    35   ar
    36    35    36   ar
    37    36    27   ar
    38    35    30   ar
    39     6     1    1
    40    10     7    1
    41    17    11   ar
    42    25    26    1
@<TRIPOS>MOLECULE
*****
 38 42 0 0 0
SMALL
GASTEIGER

@<TRIPOS>ATOM
      1 C         139.2915  142.8088  160.1834 C.3     1  UNL1        0.0080
      2 C         138.1982  142.3345  161.0944 C.3     1  UNL1        0.0177
      3 C         138.4918  142.0625  162.5400 C.3     1  UNL1        0.0721
      4 N         139.8786  142.2648  163.0747 N.3     1  UNL1       -0.2736
      5 C         140.9718  142.7391  162.1638 C.3     1  UNL1        0.0776
      6 C         140.6783  143.0111  160.7181 C.3     1  UNL1        0.0525
      7 C         140.1722  141.9928  164.5203 C.3     1  UNL1        0.0582
      8 C         141.3755  142.1383  165.4039 C.3     1  UNL1        0.0204
      9 C         140.5874  141.6082  166.5648 C.3     1  UNL1        0.0273
     10 C         139.3840  141.4627  165.6812 C.3     1  UNL1        0.0204
     11 C         140.8809  141.3362  168.0104 C.ar    1  UNL1        0.0073
     12 C         141.4359  140.0059  168.4256 C.ar    1  UNL1        0.0276
     13 C         141.7295  139.7339  169.8712 C.ar    1  UNL1        0.1400
     14 F         142.2845  138.4037  170.2864 F       1  UNL1       -0.2042
     15 C         141.4681  140.7921  170.9017 C.ar    1  UNL1        0.0319
     16 C         140.9131  142.1224  170.4864 C.ar    1  UNL1        0.0316
     17 C         140.6195  142.3944  169.0408 C.ar    1  UNL1        0.1363
     18 F         140.0645  143.7246  168.6256 F       1  UNL1       -0.2045
     19 C         141.7715  143.4854  159.8072 C.2     1  UNL1        0.0513
     20 O         142.6256  142.4902  159.0790 O.co2   1  UNL1       -0.5491
     21 O         142.0108  144.9549  159.6243 O.co2   1  UNL1       -0.5491
     22 C         138.9979  143.0808  158.7378 C.3     1  UNL1        0.0033
     23 C         139.3921  142.0809  157.6915 C.3     1  UNL1        0.0338
     24 C         139.3616  140.6145  158.0061 C.3     1  UNL1        0.1328
     25 O         138.0573  139.9401  158.3123 O.3     1  UNL1       -0.3801
     26 H         137.3384  140.5896  158.2646 H       1  UNL1        0.2108
     27 C         140.7659  138.6520  161.8043 C.ar    1  UNL1        0.1388
     28 C         142.0398  137.8602  161.8127 C.ar    1  UNL1        0.0384
     29 C         142.8456  137.7225  160.5551 C.ar    1  UNL1        0.0222
     30 C         142.3776  138.3766  159.2890 C.ar    1  UNL1        0.0813
     31 N         143.1834  138.2389  158.0314 N.ar    1  UNL1       -0.2439
     32 C         142.7153  138.8931  156.7653 C.ar    1  UNL1        0.0986
     33 C         141.4414  139.6850  156.7569 C.ar    1  UNL1        0.0187
     34 C         140.6355  139.8227  158.0145 C.ar    1  UNL1        0.0073
     35 C         141.1037  139.1685  159.2806 C.ar    1  UNL1        0.0190
     36 C         140.2978  139.3062  160.5383 C.ar    1  UNL1        0.0382
     37 C         138.8831  137.7938  163.3755 C.3     1  UNL1        0.2525
     38 O         139.9601  138.7897  163.0620 O.3     1  UNL1       -0.4714
@<TRIPOS>UNITY_ATOM_ATTR
20 1
charge -1
@<TRIPOS>BOND
     1    37    38    1
     2    38    27    1
     3    27    28   ar
     4    28    29   ar
     5    29    30   ar
     6    30    31   ar
     7    31    32   ar
     8    32    33   ar
     9    33    34   ar
    10    34    24    1
    11    24    25    1
    12    24    23    1
    13    23    22    1
    14     1    22    1
    15     1     2    1
    16     2     3    1
    17     3     4    1
    18     4     7    1
    19     7     8    1
    20     8     9    1
    21     9    11    1
    22    11    12   ar
    23    12    13   ar
    24    13    14    1
    25    13    15   ar
    26    15    16   ar
    27    16    17   ar
    28    17    18    1
    29     9    10    1
    30     4     5    1
    31     5     6    1
    32     6    19    1
    33    19    20   ar
    34    19    21   ar
    35    34    35   ar
    36    35    36   ar
    37    36    27   ar
    38    35    30   ar
    39     6     1    1
    40    10     7    1
    41    17    11   ar
    42    25    26    1
