@<TRIPOS>MOLECULE
*****
 31 35 0 0 0
SMALL
GASTEIGER

@<TRIPOS>ATOM
      1 C         138.6548  138.8387  165.0911 C.ar    1  UNL1        0.1737
      2 N         138.1248  139.0562  163.7048 N.ar    1  UNL1       -0.1611
      3 N         138.9576  140.1192  163.0517 N.ar    1  UNL1       -0.2283
      4 C         140.0022  140.5587  164.0344 C.ar    1  UNL1        0.1015
      5 C         139.8151  139.7673  165.2948 C.ar    1  UNL1        0.0390
      6 C         140.6429  139.8840  166.5403 C.2     1  UNL1       -0.0132
      7 C         141.9981  139.2444  166.6027 C.2     1  UNL1       -0.0038
      8 C         142.8259  139.3611  167.8483 C.2     1  UNL1        0.0009
      9 C         142.2983  140.1174  169.0313 C.2     1  UNL1        0.0154
     10 C         142.8819  140.3991  170.3840 C.2     1  UNL1        0.0218
     11 C         141.8872  141.2128  171.1576 C.2     1  UNL1        0.0985
     12 N         140.6888  141.4340  170.2830 N.2     1  UNL1       -0.2478
     13 C         140.9429  140.7570  168.9688 C.2     1  UNL1        0.0634
     14 C         140.1152  140.6403  167.7233 C.3     1  UNL1        0.0721
     15 C         138.7774  140.6496  161.6602 C.ar    1  UNL1        0.0828
     16 C         138.6610  142.1273  161.4300 C.ar    1  UNL1        0.0188
     17 C         138.4808  142.6577  160.0386 C.ar    1  UNL1       -0.0023
     18 C         138.4169  141.7104  158.8773 C.ar    1  UNL1       -0.0145
     19 C         138.5333  140.2327  159.1074 C.ar    1  UNL1       -0.0023
     20 C         138.7135  139.7024  160.4990 C.ar    1  UNL1        0.0188
     21 C         138.2367  142.2408  157.4858 C.3     1  UNL1        0.0914
     22 C         137.0180  141.8701  156.6938 C.ar    1  UNL1        0.1389
     23 N         136.3464  140.5289  156.6853 N.ar    1  UNL1       -0.2079
     24 C         135.1702  140.6054  155.7576 C.ar    1  UNL1        0.2204
     25 N         135.1149  141.9938  155.1927 N.ar    1  UNL1       -0.1489
     26 N         136.2569  142.7755  155.7714 N.ar    1  UNL1       -0.2612
     27 H         136.4696  143.7174  155.5794 H       1  UNL1        0.1903
     28 F         137.5824  136.8889  167.1031 F       1  UNL1       -0.1643
     29 C         138.1186  137.8638  166.0971 C.3     1  UNL1        0.4365
     30 F         138.8645  136.7534  165.4185 F       1  UNL1       -0.1643
     31 F         137.3726  138.9742  166.7757 F       1  UNL1       -0.1643
@<TRIPOS>BOND
     1    28    29    1
     2    29    30    1
     3    29    31    1
     4    29     1    1
     5     1     2   ar
     6     2     3   ar
     7     3    15    1
     8    15    16   ar
     9    16    17   ar
    10    17    18   ar
    11    18    21    1
    12    21    22    1
    13    22    23   ar
    14    23    24   ar
    15    24    25   ar
    16    25    26   ar
    17    18    19   ar
    18    19    20   ar
    19     3     4   ar
    20     4     5   ar
    21     5     6    1
    22     6     7    2
    23     7     8    1
    24     8     9    2
    25     9    10    1
    26    10    11    2
    27    11    12    1
    28    12    13    2
    29    13    14    1
    30     5     1   ar
    31    14     6    1
    32    20    15   ar
    33    13     9    1
    34    26    22   ar
    35    26    27    1
@<TRIPOS>MOLECULE
*****
 31 35 0 0 0
SMALL
GASTEIGER

@<TRIPOS>ATOM
      1 C         139.1557  138.6971  164.8305 C.ar    1  UNL1        0.1737
      2 N         139.0195  138.3031  163.3896 N.ar    1  UNL1       -0.1611
      3 N         140.1897  138.8695  162.6416 N.ar    1  UNL1       -0.2283
      4 C         141.0493  139.6136  163.6201 C.ar    1  UNL1        0.1015
      5 C         140.4102  139.5070  164.9730 C.ar    1  UNL1        0.0390
      6 C         140.9337  140.1053  166.2451 C.2     1  UNL1       -0.0132
      7 C         142.0451  139.4281  166.9906 C.2     1  UNL1       -0.0038
      8 C         142.5686  140.0264  168.2627 C.2     1  UNL1        0.0009
      9 C         141.9806  141.3020  168.7891 C.2     1  UNL1        0.0154
     10 C         142.2886  142.1216  170.0070 C.2     1  UNL1        0.0218
     11 C         141.3674  143.3054  170.0141 C.2     1  UNL1        0.0985
     12 N         140.4901  143.2174  168.8006 N.2     1  UNL1       -0.2478
     13 C         140.8691  141.9792  168.0435 C.2     1  UNL1        0.0634
     14 C         140.3456  141.3809  166.7714 C.3     1  UNL1        0.0721
     15 C         140.4541  138.7184  161.1728 C.ar    1  UNL1        0.0828
     16 C         141.8475  138.4533  160.6849 C.ar    1  UNL1        0.0188
     17 C         142.1118  138.3022  159.2162 C.ar    1  UNL1       -0.0023
     18 C         140.9827  138.4163  158.2353 C.ar    1  UNL1       -0.0145
     19 C         139.5892  138.6814  158.7232 C.ar    1  UNL1       -0.0023
     20 C         139.3250  138.8325  160.1920 C.ar    1  UNL1        0.0188
     21 C         141.2471  138.2652  156.7665 C.3     1  UNL1        0.0914
     22 C         142.4925  137.5743  156.2957 C.ar    1  UNL1        0.1389
     23 N         142.6295  136.1109  155.9966 N.ar    1  UNL1       -0.2079
     24 C         144.0413  135.8578  155.5575 C.ar    1  UNL1        0.2204
     25 N         144.7767  137.1648  155.5852 N.ar    1  UNL1       -0.1489
     26 N         143.8195  138.2257  156.0415 N.ar    1  UNL1       -0.2612
     27 H         144.0260  139.1817  156.1543 H       1  UNL1        0.1903
     28 F         137.2533  137.9895  167.0396 F       1  UNL1       -0.1643
     29 C         138.2045  138.3432  165.9351 C.3     1  UNL1        0.4365
     30 F         137.7273  139.7646  165.9794 F       1  UNL1       -0.1643
     31 F         138.6817  136.9219  165.8909 F       1  UNL1       -0.1643
@<TRIPOS>BOND
     1    28    29    1
     2    29    30    1
     3    29    31    1
     4    29     1    1
     5     1     2   ar
     6     2     3   ar
     7     3    15    1
     8    15    16   ar
     9    16    17   ar
    10    17    18   ar
    11    18    21    1
    12    21    22    1
    13    22    23   ar
    14    23    24   ar
    15    24    25   ar
    16    25    26   ar
    17    18    19   ar
    18    19    20   ar
    19     3     4   ar
    20     4     5   ar
    21     5     6    1
    22     6     7    2
    23     7     8    1
    24     8     9    2
    25     9    10    1
    26    10    11    2
    27    11    12    1
    28    12    13    2
    29    13    14    1
    30     5     1   ar
    31    14     6    1
    32    20    15   ar
    33    13     9    1
    34    26    22   ar
    35    26    27    1
@<TRIPOS>MOLECULE
*****
 31 35 0 0 0
SMALL
GASTEIGER

@<TRIPOS>ATOM
      1 C         139.6408  143.1720  164.1189 C.ar    1  UNL1        0.1737
      2 N         140.1693  143.3658  162.7286 N.ar    1  UNL1       -0.1611
      3 N         141.3365  142.4420  162.5435 N.ar    1  UNL1       -0.2283
      4 C         141.5293  141.6772  163.8195 C.ar    1  UNL1        0.1015
      5 C         140.4813  142.1285  164.7931 C.ar    1  UNL1        0.0390
      6 C         140.3047  141.6246  166.1949 C.2     1  UNL1       -0.0132
      7 C         139.5034  140.3826  166.4501 C.2     1  UNL1       -0.0038
      8 C         139.3268  139.8787  167.8519 C.2     1  UNL1        0.0009
      9 C         139.9516  140.6170  168.9985 C.2     1  UNL1        0.0154
     10 C         139.9500  140.3619  170.4766 C.2     1  UNL1        0.0218
     11 C         140.7504  141.4464  171.1349 C.2     1  UNL1        0.0985
     12 N         141.2466  142.3717  170.0637 N.2     1  UNL1       -0.2478
     13 C         140.7529  141.8591  168.7433 C.2     1  UNL1        0.0634
     14 C         140.9294  142.3629  167.3415 C.3     1  UNL1        0.0721
     15 C         142.1654  142.3066  161.3006 C.ar    1  UNL1        0.0828
     16 C         142.1460  143.3910  160.2644 C.ar    1  UNL1        0.0188
     17 C         142.9749  143.2556  159.0217 C.ar    1  UNL1       -0.0023
     18 C         143.8231  142.0359  158.8150 C.ar    1  UNL1       -0.0145
     19 C         143.8425  140.9515  159.8512 C.ar    1  UNL1       -0.0023
     20 C         143.0136  141.0869  161.0941 C.ar    1  UNL1        0.0188
     21 C         144.6520  141.9006  157.5722 C.3     1  UNL1        0.0914
     22 C         144.6421  140.6144  156.8004 C.ar    1  UNL1        0.1389
     23 N         143.4376  139.7680  156.5130 N.ar    1  UNL1       -0.2079
     24 C         143.8860  138.5793  155.7156 C.ar    1  UNL1        0.2204
     25 N         145.3676  138.6911  155.5102 N.ar    1  UNL1       -0.1489
     26 N         145.8349  139.9489  156.1806 N.ar    1  UNL1       -0.2612
     27 H         146.7618  140.2795  156.2089 H       1  UNL1        0.1903
     28 F         137.3115  144.6178  165.3373 F       1  UNL1       -0.1643
     29 C         138.4761  143.8949  164.7281 C.3     1  UNL1        0.4365
     30 F         139.3307  145.1132  164.9161 F       1  UNL1       -0.1643
     31 F         137.6215  142.6766  164.5402 F       1  UNL1       -0.1643
@<TRIPOS>BOND
     1    28    29    1
     2    29    30    1
     3    29    31    1
     4    29     1    1
     5     1     2   ar
     6     2     3   ar
     7     3    15    1
     8    15    16   ar
     9    16    17   ar
    10    17    18   ar
    11    18    21    1
    12    21    22    1
    13    22    23   ar
    14    23    24   ar
    15    24    25   ar
    16    25    26   ar
    17    18    19   ar
    18    19    20   ar
    19     3     4   ar
    20     4     5   ar
    21     5     6    1
    22     6     7    2
    23     7     8    1
    24     8     9    2
    25     9    10    1
    26    10    11    2
    27    11    12    1
    28    12    13    2
    29    13    14    1
    30     5     1   ar
    31    14     6    1
    32    20    15   ar
    33    13     9    1
    34    26    22   ar
    35    26    27    1
@<TRIPOS>MOLECULE
*****
 31 35 0 0 0
SMALL
GASTEIGER

@<TRIPOS>ATOM
      1 C         139.1891  138.7523  164.6150 C.ar    1  UNL1        0.1737
      2 N         139.1375  138.2181  163.2143 N.ar    1  UNL1       -0.1611
      3 N         140.2573  138.8447  162.4376 N.ar    1  UNL1       -0.2283
      4 C         141.0012  139.7662  163.3584 C.ar    1  UNL1        0.1015
      5 C         140.3410  139.7090  164.7040 C.ar    1  UNL1        0.0390
      6 C         140.7592  140.4743  165.9245 C.2     1  UNL1       -0.0132
      7 C         140.2396  141.8625  166.1539 C.2     1  UNL1       -0.0038
      8 C         140.6578  142.6278  167.3744 C.2     1  UNL1        0.0009
      9 C         141.5956  142.0047  168.3655 C.2     1  UNL1        0.0154
     10 C         142.1796  142.5118  169.6507 C.2     1  UNL1        0.0218
     11 C         143.0601  141.4368  170.2156 C.2     1  UNL1        0.0985
     12 N         143.0203  140.2654  169.2795 N.2     1  UNL1       -0.2478
     13 C         142.1152  140.6164  168.1361 C.2     1  UNL1        0.0634
     14 C         141.6970  139.8512  166.9156 C.3     1  UNL1        0.0721
     15 C         140.5772  138.5939  160.9938 C.ar    1  UNL1        0.0828
     16 C         139.4911  138.6647  159.9617 C.ar    1  UNL1        0.0188
     17 C         139.8110  138.4139  158.5179 C.ar    1  UNL1       -0.0023
     18 C         141.2170  138.0923  158.1061 C.ar    1  UNL1       -0.0145
     19 C         142.3033  138.0214  159.1382 C.ar    1  UNL1       -0.0023
     20 C         141.9833  138.2723  160.5821 C.ar    1  UNL1        0.0188
     21 C         141.5370  137.8415  156.6622 C.3     1  UNL1        0.0914
     22 C         141.8402  136.4497  156.1920 C.ar    1  UNL1        0.1389
     23 N         143.1845  135.7847  156.2151 N.ar    1  UNL1       -0.2079
     24 C         143.0276  134.4026  155.6535 C.ar    1  UNL1        0.2204
     25 N         141.5863  134.2136  155.2833 N.ar    1  UNL1       -0.1489
     26 N         140.8525  135.4788  155.6161 N.ar    1  UNL1       -0.2612
     27 H         139.8913  135.6431  155.4805 H       1  UNL1        0.1903
     28 F         137.3175  138.0333  166.8466 F       1  UNL1       -0.1643
     29 C         138.2533  138.3928  165.7309 C.3     1  UNL1        0.4365
     30 F         138.8067  136.9988  165.7459 F       1  UNL1       -0.1643
     31 F         137.6999  139.7869  165.7158 F       1  UNL1       -0.1643
@<TRIPOS>BOND
     1    28    29    1
     2    29    30    1
     3    29    31    1
     4    29     1    1
     5     1     2   ar
     6     2     3   ar
     7     3    15    1
     8    15    16   ar
     9    16    17   ar
    10    17    18   ar
    11    18    21    1
    12    21    22    1
    13    22    23   ar
    14    23    24   ar
    15    24    25   ar
    16    25    26   ar
    17    18    19   ar
    18    19    20   ar
    19     3     4   ar
    20     4     5   ar
    21     5     6    1
    22     6     7    2
    23     7     8    1
    24     8     9    2
    25     9    10    1
    26    10    11    2
    27    11    12    1
    28    12    13    2
    29    13    14    1
    30     5     1   ar
    31    14     6    1
    32    20    15   ar
    33    13     9    1
    34    26    22   ar
    35    26    27    1
@<TRIPOS>MOLECULE
*****
 31 35 0 0 0
SMALL
GASTEIGER

@<TRIPOS>ATOM
      1 C         138.9072  143.5772  164.1626 C.ar    1  UNL1        0.1737
      2 N         138.4047  143.6018  162.7495 N.ar    1  UNL1       -0.1611
      3 N         138.9447  142.3931  162.0444 N.ar    1  UNL1       -0.2283
      4 C         139.7811  141.6214  163.0217 C.ar    1  UNL1        0.1015
      5 C         139.7579  142.3533  164.3308 C.ar    1  UNL1        0.0390
      6 C         140.4618  141.9347  165.5875 C.2     1  UNL1       -0.0132
      7 C         141.8722  142.3782  165.8405 C.2     1  UNL1       -0.0038
      8 C         142.5761  141.9596  167.0973 C.2     1  UNL1        0.0009
      9 C         141.8695  141.0975  168.1010 C.2     1  UNL1        0.0154
     10 C         142.3039  140.5314  169.4204 C.2     1  UNL1        0.0218
     11 C         141.1619  139.7379  169.9828 C.2     1  UNL1        0.0985
     12 N         140.0217  139.8137  169.0110 N.2     1  UNL1       -0.2478
     13 C         140.4591  140.6540  167.8480 C.2     1  UNL1        0.0634
     14 C         139.7552  141.0726  166.5913 C.3     1  UNL1        0.0721
     15 C         138.6926  142.0212  160.6132 C.ar    1  UNL1        0.0828
     16 C         138.1335  140.6707  160.2765 C.ar    1  UNL1        0.0188
     17 C         137.8815  140.2988  158.8454 C.ar    1  UNL1       -0.0023
     18 C         138.1886  141.2775  157.7509 C.ar    1  UNL1       -0.0145
     19 C         138.7477  142.6282  158.0876 C.ar    1  UNL1       -0.0023
     20 C         138.9997  142.9999  159.5188 C.ar    1  UNL1        0.0188
     21 C         137.9365  140.9057  156.3198 C.3     1  UNL1        0.0914
     22 C         136.5299  140.7713  155.8163 C.ar    1  UNL1        0.1389
     23 N         135.8896  139.5109  155.3151 N.ar    1  UNL1       -0.2079
     24 C         134.4806  139.8344  154.9147 C.ar    1  UNL1        0.2204
     25 N         134.2503  141.2947  155.1685 N.ar    1  UNL1       -0.1489
     26 N         135.5169  141.8738  155.7257 N.ar    1  UNL1       -0.2612
     27 H         135.6584  142.8126  155.9862 H       1  UNL1        0.1903
     28 F         138.3150  145.6177  166.2806 F       1  UNL1       -0.1643
     29 C         138.6111  144.5975  165.2216 C.3     1  UNL1        0.4365
     30 F         137.1985  144.1002  165.3057 F       1  UNL1       -0.1643
     31 F         140.0238  145.0948  165.1375 F       1  UNL1       -0.1643
@<TRIPOS>BOND
     1    28    29    1
     2    29    30    1
     3    29    31    1
     4    29     1    1
     5     1     2   ar
     6     2     3   ar
     7     3    15    1
     8    15    16   ar
     9    16    17   ar
    10    17    18   ar
    11    18    21    1
    12    21    22    1
    13    22    23   ar
    14    23    24   ar
    15    24    25   ar
    16    25    26   ar
    17    18    19   ar
    18    19    20   ar
    19     3     4   ar
    20     4     5   ar
    21     5     6    1
    22     6     7    2
    23     7     8    1
    24     8     9    2
    25     9    10    1
    26    10    11    2
    27    11    12    1
    28    12    13    2
    29    13    14    1
    30     5     1   ar
    31    14     6    1
    32    20    15   ar
    33    13     9    1
    34    26    22   ar
    35    26    27    1
@<TRIPOS>MOLECULE
*****
 31 35 0 0 0
SMALL
GASTEIGER

@<TRIPOS>ATOM
      1 C         138.8963  141.2105  162.6467 C.ar    1  UNL1        0.1737
      2 N         139.2631  140.8762  161.2312 N.ar    1  UNL1       -0.1611
      3 N         140.0774  139.6166  161.2484 N.ar    1  UNL1       -0.2283
      4 C         140.2139  139.1724  162.6747 C.ar    1  UNL1        0.1015
      5 C         139.4840  140.1575  163.5388 C.ar    1  UNL1        0.0390
      6 C         139.3629  140.0998  165.0329 C.2     1  UNL1       -0.0132
      7 C         138.4360  139.1091  165.6725 C.2     1  UNL1       -0.0038
      8 C         138.3149  139.0514  167.1666 C.2     1  UNL1        0.0009
      9 C         139.1208  139.9845  168.0209 C.2     1  UNL1        0.0154
     10 C         139.2104  140.1590  169.5080 C.2     1  UNL1        0.0218
     11 C         140.1927  141.2576  169.7873 C.2     1  UNL1        0.0985
     12 N         140.7103  141.7621  168.4729 N.2     1  UNL1       -0.2478
     13 C         140.0478  140.9753  167.3812 C.2     1  UNL1        0.0634
     14 C         140.1688  141.0329  165.8872 C.3     1  UNL1        0.0721
     15 C         140.6540  138.9230  160.0499 C.ar    1  UNL1        0.0828
     16 C         139.8170  138.7302  158.8202 C.ar    1  UNL1        0.0188
     17 C         140.3935  138.0366  157.6218 C.ar    1  UNL1       -0.0023
     18 C         141.8071  137.5358  157.6530 C.ar    1  UNL1       -0.0145
     19 C         142.6442  137.7286  158.8827 C.ar    1  UNL1       -0.0023
     20 C         142.0675  138.4222  160.0812 C.ar    1  UNL1        0.0188
     21 C         142.3837  136.8421  156.4544 C.3     1  UNL1        0.0914
     22 C         142.2853  135.3504  156.3318 C.ar    1  UNL1        0.1389
     23 N         141.4329  134.6008  155.3513 N.ar    1  UNL1       -0.2079
     24 C         141.6428  133.1335  155.5816 C.ar    1  UNL1        0.2204
     25 N         142.6249  132.9763  156.7044 N.ar    1  UNL1       -0.1489
     26 N         143.0220  134.3465  157.1680 N.ar    1  UNL1       -0.2612
     27 H         143.6550  134.5510  157.8938 H       1  UNL1        0.1903
     28 F         137.2725  143.5707  163.5372 F       1  UNL1       -0.1643
     29 C         138.0844  142.3906  163.0920 C.3     1  UNL1        0.4365
     30 F         139.3197  143.2415  163.0892 F       1  UNL1       -0.1643
     31 F         136.8491  141.5398  163.0947 F       1  UNL1       -0.1643
@<TRIPOS>BOND
     1    28    29    1
     2    29    30    1
     3    29    31    1
     4    29     1    1
     5     1     2   ar
     6     2     3   ar
     7     3    15    1
     8    15    16   ar
     9    16    17   ar
    10    17    18   ar
    11    18    21    1
    12    21    22    1
    13    22    23   ar
    14    23    24   ar
    15    24    25   ar
    16    25    26   ar
    17    18    19   ar
    18    19    20   ar
    19     3     4   ar
    20     4     5   ar
    21     5     6    1
    22     6     7    2
    23     7     8    1
    24     8     9    2
    25     9    10    1
    26    10    11    2
    27    11    12    1
    28    12    13    2
    29    13    14    1
    30     5     1   ar
    31    14     6    1
    32    20    15   ar
    33    13     9    1
    34    26    22   ar
    35    26    27    1
@<TRIPOS>MOLECULE
*****
 31 35 0 0 0
SMALL
GASTEIGER

@<TRIPOS>ATOM
      1 C         141.2392  139.4969  163.3719 C.ar    1  UNL1        0.1737
      2 N         141.2448  140.1830  162.0381 N.ar    1  UNL1       -0.1611
      3 N         141.3508  141.6601  162.2770 N.ar    1  UNL1       -0.2283
      4 C         141.4106  141.8868  163.7586 C.ar    1  UNL1        0.1015
      5 C         141.3417  140.5499  164.4353 C.ar    1  UNL1        0.0390
      6 C         141.3702  140.3084  165.9155 C.2     1  UNL1       -0.0132
      7 C         142.6667  139.9881  166.5983 C.2     1  UNL1       -0.0038
      8 C         142.6952  139.7466  168.0785 C.2     1  UNL1        0.0009
      9 C         141.4270  139.8253  168.8758 C.2     1  UNL1        0.0154
     10 C         141.1470  139.6369  170.3373 C.2     1  UNL1        0.0218
     11 C         139.6774  139.8407  170.5577 C.2     1  UNL1        0.0985
     12 N         139.0491  140.1551  169.2324 N.2     1  UNL1       -0.2478
     13 C         140.1305  140.1455  168.1929 C.2     1  UNL1        0.0634
     14 C         140.1020  140.3871  166.7127 C.3     1  UNL1        0.0721
     15 C         141.3900  142.7236  161.2200 C.ar    1  UNL1        0.0828
     16 C         142.0949  142.4649  159.9215 C.ar    1  UNL1        0.0188
     17 C         142.1341  143.5284  158.8645 C.ar    1  UNL1       -0.0023
     18 C         141.4685  144.8507  159.1060 C.ar    1  UNL1       -0.0145
     19 C         140.7635  145.1095  160.4046 C.ar    1  UNL1       -0.0023
     20 C         140.7243  144.0459  161.4615 C.ar    1  UNL1        0.0188
     21 C         141.5077  145.9143  158.0490 C.3     1  UNL1        0.0914
     22 C         140.3816  146.0363  157.0656 C.ar    1  UNL1        0.1389
     23 N         139.6931  144.9006  156.3684 N.ar    1  UNL1       -0.2079
     24 C         138.6323  145.4777  155.4786 C.ar    1  UNL1        0.2204
     25 N         138.6653  146.9701  155.6260 N.ar    1  UNL1       -0.1489
     26 N         139.7464  147.3153  156.6068 N.ar    1  UNL1       -0.2612
     27 H         139.9954  148.2221  156.8982 H       1  UNL1        0.1903
     28 F         141.0552  136.5381  163.8323 F       1  UNL1       -0.1643
     29 C         141.1472  138.0175  163.6021 C.3     1  UNL1        0.4365
     30 F         139.6501  138.1107  163.6028 F       1  UNL1       -0.1643
     31 F         142.6443  137.9242  163.6014 F       1  UNL1       -0.1643
@<TRIPOS>BOND
     1    28    29    1
     2    29    30    1
     3    29    31    1
     4    29     1    1
     5     1     2   ar
     6     2     3   ar
     7     3    15    1
     8    15    16   ar
     9    16    17   ar
    10    17    18   ar
    11    18    21    1
    12    21    22    1
    13    22    23   ar
    14    23    24   ar
    15    24    25   ar
    16    25    26   ar
    17    18    19   ar
    18    19    20   ar
    19     3     4   ar
    20     4     5   ar
    21     5     6    1
    22     6     7    2
    23     7     8    1
    24     8     9    2
    25     9    10    1
    26    10    11    2
    27    11    12    1
    28    12    13    2
    29    13    14    1
    30     5     1   ar
    31    14     6    1
    32    20    15   ar
    33    13     9    1
    34    26    22   ar
    35    26    27    1
@<TRIPOS>MOLECULE
*****
 31 35 0 0 0
SMALL
GASTEIGER

@<TRIPOS>ATOM
      1 C         143.2500  142.5442  164.1562 C.ar    1  UNL1        0.1737
      2 N         143.2772  142.1503  162.7091 N.ar    1  UNL1       -0.1611
      3 N         142.4485  140.9101  162.5507 N.ar    1  UNL1       -0.2283
      4 C         141.9092  140.5375  163.8999 C.ar    1  UNL1        0.1015
      5 C         142.4046  141.5474  164.8921 C.ar    1  UNL1        0.0390
      6 C         142.1068  141.5587  166.3623 C.2     1  UNL1       -0.0132
      7 C         142.7157  140.5218  167.2588 C.2     1  UNL1       -0.0038
      8 C         142.4179  140.5331  168.7290 C.2     1  UNL1        0.0009
      9 C         141.5112  141.5814  169.3025 C.2     1  UNL1        0.0154
     10 C         141.0379  141.8427  170.7016 C.2     1  UNL1        0.0218
     11 C         140.1366  143.0413  170.6698 C.2     1  UNL1        0.0985
     12 N         140.0527  143.5206  169.2509 N.2     1  UNL1       -0.2478
     13 C         140.9022  142.6184  168.4058 C.2     1  UNL1        0.0634
     14 C         141.2001  142.6070  166.9358 C.3     1  UNL1        0.0721
     15 C         142.2024  140.1720  161.2682 C.ar    1  UNL1        0.0828
     16 C         141.5104  140.8590  160.1284 C.ar    1  UNL1        0.0188
     17 C         141.2643  140.1209  158.8460 C.ar    1  UNL1       -0.0023
     18 C         141.7101  138.6959  158.7034 C.ar    1  UNL1       -0.0145
     19 C         142.4021  138.0088  159.8433 C.ar    1  UNL1       -0.0023
     20 C         142.6482  138.7469  161.1257 C.ar    1  UNL1        0.0188
     21 C         141.4639  137.9578  157.4209 C.3     1  UNL1        0.0914
     22 C         142.6138  137.3536  156.6707 C.ar    1  UNL1        0.1389
     23 N         142.7304  135.9215  156.2401 N.ar    1  UNL1       -0.2079
     24 C         144.0376  135.7583  155.5226 C.ar    1  UNL1        0.2204
     25 N         144.7287  137.0896  155.5099 N.ar    1  UNL1       -0.1489
     26 N         143.8487  138.0755  156.2195 N.ar    1  UNL1       -0.2612
     27 H         144.0469  139.0290  156.3637 H       1  UNL1        0.1903
     28 F         144.6422  144.9103  165.3661 F       1  UNL1       -0.1643
     29 C         143.9461  143.7273  164.7611 C.3     1  UNL1        0.4365
     30 F         145.1331  142.8667  165.0781 F       1  UNL1       -0.1643
     31 F         142.7592  144.5879  164.4441 F       1  UNL1       -0.1643
@<TRIPOS>BOND
     1    28    29    1
     2    29    30    1
     3    29    31    1
     4    29     1    1
     5     1     2   ar
     6     2     3   ar
     7     3    15    1
     8    15    16   ar
     9    16    17   ar
    10    17    18   ar
    11    18    21    1
    12    21    22    1
    13    22    23   ar
    14    23    24   ar
    15    24    25   ar
    16    25    26   ar
    17    18    19   ar
    18    19    20   ar
    19     3     4   ar
    20     4     5   ar
    21     5     6    1
    22     6     7    2
    23     7     8    1
    24     8     9    2
    25     9    10    1
    26    10    11    2
    27    11    12    1
    28    12    13    2
    29    13    14    1
    30     5     1   ar
    31    14     6    1
    32    20    15   ar
    33    13     9    1
    34    26    22   ar
    35    26    27    1
@<TRIPOS>MOLECULE
*****
 31 35 0 0 0
SMALL
GASTEIGER

@<TRIPOS>ATOM
      1 C         143.1635  143.0465  163.5449 C.ar    1  UNL1        0.1737
      2 N         143.3561  142.4513  162.1816 N.ar    1  UNL1       -0.1611
      3 N         142.6946  141.1052  162.1658 N.ar    1  UNL1       -0.2283
      4 C         142.0932  140.8683  163.5194 C.ar    1  UNL1        0.1015
      5 C         142.3830  142.0681  164.3717 C.ar    1  UNL1        0.0390
      6 C         141.9655  142.2565  165.8001 C.2     1  UNL1       -0.0132
      7 C         140.5810  142.7368  166.1198 C.2     1  UNL1       -0.0038
      8 C         140.1636  142.9253  167.5482 C.2     1  UNL1        0.0009
      9 C         141.1308  142.6334  168.6569 C.2     1  UNL1        0.0154
     10 C         141.0048  142.7250  170.1488 C.2     1  UNL1        0.0218
     11 C         142.3116  142.3013  170.7511 C.2     1  UNL1        0.0985
     12 N         143.2452  141.9478  169.6316 N.2     1  UNL1       -0.2478
     13 C         142.5154  142.1530  168.3372 C.2     1  UNL1        0.0634
     14 C         142.9328  141.9646  166.9088 C.3     1  UNL1        0.0721
     15 C         142.6435  140.1615  161.0009 C.ar    1  UNL1        0.0828
     16 C         142.6429  140.6983  159.6003 C.ar    1  UNL1        0.0188
     17 C         142.5918  139.7547  158.4355 C.ar    1  UNL1       -0.0023
     18 C         142.5413  138.2742  158.6712 C.ar    1  UNL1       -0.0145
     19 C         142.5420  137.7373  160.0719 C.ar    1  UNL1       -0.0023
     20 C         142.5931  138.6811  161.2367 C.ar    1  UNL1        0.0188
     21 C         142.4902  137.3306  157.5063 C.3     1  UNL1        0.0914
     22 C         141.2271  137.1902  156.7097 C.ar    1  UNL1        0.1389
     23 N         141.1387  136.8870  155.2433 N.ar    1  UNL1       -0.2079
     24 C         139.6875  136.8379  154.8668 C.ar    1  UNL1        0.2204
     25 N         138.8791  137.1107  156.1005 N.ar    1  UNL1       -0.1489
     26 N         139.8306  137.3285  157.2395 N.ar    1  UNL1       -0.2612
     27 H         139.5822  137.5272  158.1711 H       1  UNL1        0.1903
     28 F         144.1638  145.7234  164.4578 F       1  UNL1       -0.1643
     29 C         143.6637  144.3850  164.0014 C.3     1  UNL1        0.4365
     30 F         144.7892  143.7151  164.7324 F       1  UNL1       -0.1643
     31 F         142.5382  145.0549  163.2704 F       1  UNL1       -0.1643
@<TRIPOS>BOND
     1    28    29    1
     2    29    30    1
     3    29    31    1
     4    29     1    1
     5     1     2   ar
     6     2     3   ar
     7     3    15    1
     8    15    16   ar
     9    16    17   ar
    10    17    18   ar
    11    18    21    1
    12    21    22    1
    13    22    23   ar
    14    23    24   ar
    15    24    25   ar
    16    25    26   ar
    17    18    19   ar
    18    19    20   ar
    19     3     4   ar
    20     4     5   ar
    21     5     6    1
    22     6     7    2
    23     7     8    1
    24     8     9    2
    25     9    10    1
    26    10    11    2
    27    11    12    1
    28    12    13    2
    29    13    14    1
    30     5     1   ar
    31    14     6    1
    32    20    15   ar
    33    13     9    1
    34    26    22   ar
    35    26    27    1
