@<TRIPOS>MOLECULE
*****
 32 35 0 0 0
SMALL
GASTEIGER

@<TRIPOS>ATOM
      1 N         140.8380  139.5485  163.8798 N.pl3   1  UNL1       -0.3075
      2 C         141.1637  140.7330  163.0190 C.3     1  UNL1        0.0908
      3 C         140.8005  140.7250  161.5636 C.3     1  UNL1        0.0229
      4 C         140.1117  139.5325  160.9690 C.3     1  UNL1        0.0194
      5 C         139.7861  138.3480  161.8298 C.3     1  UNL1        0.0229
      6 C         140.1492  138.3560  163.2852 C.3     1  UNL1        0.0908
      7 C         140.5409  139.9515  167.8167 C.ar    1  UNL1       -0.0154
      8 C         141.9273  139.5725  168.2459 C.ar    1  UNL1       -0.0038
      9 C         142.9506  139.1854  167.2197 C.ar    1  UNL1        0.0010
     10 C         142.5875  139.1775  165.7643 C.ar    1  UNL1        0.0145
     11 C         141.2011  139.5565  165.3352 C.ar    1  UNL1        0.0475
     12 C         140.1778  139.9435  166.3614 C.ar    1  UNL1        0.0106
     13 C         139.5176  140.3385  168.8429 C.3     1  UNL1        0.0680
     14 O         140.0261  142.7260  169.7323 O.co2   1  UNL1       -0.5488
     15 C         139.8954  141.2510  169.9718 C.2     1  UNL1        0.0547
     16 O         140.1425  140.6886  171.3402 O.co2   1  UNL1       -0.5488
     17 C         139.7486  139.5245  159.5137 C.3     1  UNL1        0.0722
     18 N         140.4726  138.6157  158.5651 N.3     1  UNL1       -0.2724
     19 C         139.7413  138.0036  157.4073 C.3     1  UNL1        0.0758
     20 C         140.4654  137.0948  156.4587 C.3     1  UNL1        0.0609
     21 C         141.9207  136.7982  156.6678 C.3     1  UNL1        0.1687
     22 C         142.6521  137.4103  157.8256 C.3     1  UNL1        0.0609
     23 C         141.9281  138.3190  158.7742 C.3     1  UNL1        0.0758
     24 O         142.6448  135.8894  155.7192 O.3     1  UNL1       -0.4790
     25 C         142.8372  134.4428  156.0660 C.ar    1  UNL1        0.1393
     26 C         141.8635  133.4162  155.5682 C.ar    1  UNL1        0.0378
     27 C         142.0560  131.9696  155.9150 C.ar    1  UNL1        0.0154
     28 C         143.2222  131.5496  156.7596 C.ar    1  UNL1        0.0684
     29 CL        143.4146  130.1030  157.1064 Cl      1  UNL1       -0.0814
     30 C         144.1960  132.5762  157.2576 C.ar    1  UNL1        0.0712
     31 CL        145.3622  132.1562  158.1023 Cl      1  UNL1       -0.0813
     32 C         144.0035  134.0228  156.9108 C.ar    1  UNL1        0.0491
@<TRIPOS>UNITY_ATOM_ATTR
14 1
charge -1
@<TRIPOS>BOND
     1    14    15   ar
     2    15    16   ar
     3    15    13    1
     4    13     7    1
     5     7     8   ar
     6     8     9   ar
     7     9    10   ar
     8    10    11   ar
     9    11     1    1
    10     1     2    1
    11     2     3    1
    12     3     4    1
    13     4    17    1
    14    17    18    1
    15    18    19    1
    16    19    20    1
    17    20    21    1
    18    21    24    1
    19    24    25    1
    20    25    26   ar
    21    26    27   ar
    22    27    28   ar
    23    28    29    1
    24    28    30   ar
    25    30    31    1
    26    30    32   ar
    27    21    22    1
    28    22    23    1
    29     4     5    1
    30     5     6    1
    31    11    12   ar
    32    12     7   ar
    33     6     1    1
    34    23    18    1
    35    32    25   ar
@<TRIPOS>MOLECULE
*****
 32 35 0 0 0
SMALL
GASTEIGER

@<TRIPOS>ATOM
      1 N         141.2102  139.7660  164.0136 N.pl3   1  UNL1       -0.3075
      2 C         140.6418  140.3872  162.7723 C.3     1  UNL1        0.0908
      3 C         141.4910  140.5181  161.5427 C.3     1  UNL1        0.0229
      4 C         142.9086  140.0278  161.5545 C.3     1  UNL1        0.0194
      5 C         143.4769  139.4065  162.7960 C.3     1  UNL1        0.0229
      6 C         142.6277  139.2756  164.0255 C.3     1  UNL1        0.0908
      7 C         140.0577  139.9145  167.8083 C.ar    1  UNL1       -0.0154
      8 C         138.6628  139.3733  167.7023 C.ar    1  UNL1       -0.0038
      9 C         138.1170  138.9630  166.3667 C.ar    1  UNL1        0.0010
     10 C         138.9661  139.0939  165.1372 C.ar    1  UNL1        0.0145
     11 C         140.3610  139.6351  165.2432 C.ar    1  UNL1        0.0475
     12 C         140.9068  140.0454  166.5788 C.ar    1  UNL1        0.0106
     13 C         140.6035  140.3248  169.1439 C.3     1  UNL1        0.0680
     14 O         139.0840  141.8351  170.6137 O.co2   1  UNL1       -0.5488
     15 C         139.6787  140.4912  170.3131 C.2     1  UNL1        0.0547
     16 O         139.3484  139.3137  171.1816 O.co2   1  UNL1       -0.5488
     17 C         143.7577  140.1587  160.3250 C.3     1  UNL1        0.0722
     18 N         143.4631  139.3194  159.1173 N.3     1  UNL1       -0.2724
     19 C         142.9025  137.9379  159.2825 C.3     1  UNL1        0.0758
     20 C         142.6079  137.0986  158.0747 C.3     1  UNL1        0.0609
     21 C         142.8738  137.6408  156.7016 C.3     1  UNL1        0.1687
     22 C         143.4344  139.0223  156.5364 C.3     1  UNL1        0.0609
     23 C         143.7291  139.8616  157.7441 C.3     1  UNL1        0.0758
     24 O         142.5792  136.8016  155.4939 O.3     1  UNL1       -0.4790
     25 C         142.5419  135.3066  155.6104 C.ar    1  UNL1        0.1393
     26 C         141.3504  134.5448  155.1103 C.ar    1  UNL1        0.0378
     27 C         141.3130  133.0498  155.2269 C.ar    1  UNL1        0.0154
     28 C         142.4672  132.3165  155.8434 C.ar    1  UNL1        0.0684
     29 CL        142.4298  130.8215  155.9599 Cl      1  UNL1       -0.0814
     30 C         143.6587  133.0783  156.3435 C.ar    1  UNL1        0.0712
     31 CL        144.8129  132.3450  156.9600 Cl      1  UNL1       -0.0813
     32 C         143.6961  134.5733  156.2270 C.ar    1  UNL1        0.0491
@<TRIPOS>UNITY_ATOM_ATTR
14 1
charge -1
@<TRIPOS>BOND
     1    14    15   ar
     2    15    16   ar
     3    15    13    1
     4    13     7    1
     5     7     8   ar
     6     8     9   ar
     7     9    10   ar
     8    10    11   ar
     9    11     1    1
    10     1     2    1
    11     2     3    1
    12     3     4    1
    13     4    17    1
    14    17    18    1
    15    18    19    1
    16    19    20    1
    17    20    21    1
    18    21    24    1
    19    24    25    1
    20    25    26   ar
    21    26    27   ar
    22    27    28   ar
    23    28    29    1
    24    28    30   ar
    25    30    31    1
    26    30    32   ar
    27    21    22    1
    28    22    23    1
    29     4     5    1
    30     5     6    1
    31    11    12   ar
    32    12     7   ar
    33     6     1    1
    34    23    18    1
    35    32    25   ar
@<TRIPOS>MOLECULE
*****
 32 35 0 0 0
SMALL
GASTEIGER

@<TRIPOS>ATOM
      1 N         139.1946  139.6201  163.8451 N.pl3   1  UNL1       -0.3075
      2 C         139.6738  140.7670  163.0055 C.3     1  UNL1        0.0908
      3 C         139.6427  140.6656  161.5092 C.3     1  UNL1        0.0229
      4 C         139.1324  139.4172  160.8526 C.3     1  UNL1        0.0194
      5 C         138.6532  138.2703  161.6922 C.3     1  UNL1        0.0229
      6 C         138.6843  138.3717  163.1885 C.3     1  UNL1        0.0908
      7 C         140.3617  140.5779  167.5153 C.ar    1  UNL1       -0.0154
      8 C         139.2879  139.9244  168.3338 C.ar    1  UNL1       -0.0038
      9 C         138.1830  139.1695  167.6561 C.ar    1  UNL1        0.0010
     10 C         138.1519  139.0681  166.1599 C.ar    1  UNL1        0.0145
     11 C         139.2257  139.7215  165.3414 C.ar    1  UNL1        0.0475
     12 C         140.3306  140.4764  166.0191 C.ar    1  UNL1        0.0106
     13 C         141.4666  141.3328  168.1931 C.3     1  UNL1        0.0680
     14 O         143.4546  141.2049  169.8608 O.co2   1  UNL1       -0.5488
     15 C         142.6442  140.5939  168.7563 C.2     1  UNL1        0.0547
     16 O         143.0114  139.2440  168.2150 O.co2   1  UNL1       -0.5488
     17 C         139.1013  139.3157  159.3564 C.3     1  UNL1        0.0722
     18 N         140.1863  138.5752  158.6322 N.3     1  UNL1       -0.2724
     19 C         141.5499  138.4542  159.2454 C.3     1  UNL1        0.0758
     20 C         142.6349  137.7137  158.5212 C.3     1  UNL1        0.0609
     21 C         142.3562  137.0942  157.1838 C.3     1  UNL1        0.1687
     22 C         140.9927  137.2152  156.5706 C.3     1  UNL1        0.0609
     23 C         139.9077  137.9557  157.2948 C.3     1  UNL1        0.0758
     24 O         143.4412  136.3537  156.4596 O.3     1  UNL1       -0.4790
     25 C         143.3290  134.8723  156.2528 C.ar    1  UNL1        0.1393
     26 C         143.5219  133.9368  157.4093 C.ar    1  UNL1        0.0378
     27 C         143.4097  132.4554  157.2025 C.ar    1  UNL1        0.0154
     28 C         143.1045  131.9094  155.8391 C.ar    1  UNL1        0.0684
     29 CL        142.9923  130.4280  155.6323 Cl      1  UNL1       -0.0814
     30 C         142.9116  132.8449  154.6825 C.ar    1  UNL1        0.0712
     31 CL        142.6065  132.2990  153.3191 Cl      1  UNL1       -0.0813
     32 C         143.0238  134.3264  154.8893 C.ar    1  UNL1        0.0491
@<TRIPOS>UNITY_ATOM_ATTR
14 1
charge -1
@<TRIPOS>BOND
     1    14    15   ar
     2    15    16   ar
     3    15    13    1
     4    13     7    1
     5     7     8   ar
     6     8     9   ar
     7     9    10   ar
     8    10    11   ar
     9    11     1    1
    10     1     2    1
    11     2     3    1
    12     3     4    1
    13     4    17    1
    14    17    18    1
    15    18    19    1
    16    19    20    1
    17    20    21    1
    18    21    24    1
    19    24    25    1
    20    25    26   ar
    21    26    27   ar
    22    27    28   ar
    23    28    29    1
    24    28    30   ar
    25    30    31    1
    26    30    32   ar
    27    21    22    1
    28    22    23    1
    29     4     5    1
    30     5     6    1
    31    11    12   ar
    32    12     7   ar
    33     6     1    1
    34    23    18    1
    35    32    25   ar
@<TRIPOS>MOLECULE
*****
 32 35 0 0 0
SMALL
GASTEIGER

@<TRIPOS>ATOM
      1 N         140.0465  141.0451  164.3574 N.pl3   1  UNL1       -0.3075
      2 C         138.8432  140.9961  163.4632 C.3     1  UNL1        0.0908
      3 C         139.0032  141.1609  161.9809 C.3     1  UNL1        0.0229
      4 C         140.3664  141.3747  161.3928 C.3     1  UNL1        0.0194
      5 C         141.5698  141.4237  162.2871 C.3     1  UNL1        0.0229
      6 C         141.4098  141.2589  163.7694 C.3     1  UNL1        0.0908
      7 C         140.2830  141.7493  168.2560 C.ar    1  UNL1       -0.0154
      8 C         139.5667  140.5509  168.8044 C.ar    1  UNL1       -0.0038
      9 C         139.0104  139.5172  167.8706 C.ar    1  UNL1        0.0010
     10 C         139.1704  139.6820  166.3883 C.ar    1  UNL1        0.0145
     11 C         139.8866  140.8804  165.8398 C.ar    1  UNL1        0.0475
     12 C         140.4429  141.9140  166.7737 C.ar    1  UNL1        0.0106
     13 C         140.8393  142.7830  169.1898 C.3     1  UNL1        0.0680
     14 O         139.2025  143.3177  171.1354 O.co2   1  UNL1       -0.5488
     15 C         140.4973  142.7366  170.6495 C.2     1  UNL1        0.0547
     16 O         141.4500  142.1092  171.6235 O.co2   1  UNL1       -0.5488
     17 C         140.5264  141.5394  159.9105 C.3     1  UNL1        0.0722
     18 N         141.3008  140.5250  159.1224 N.3     1  UNL1       -0.2724
     19 C         140.8452  139.0963  159.0863 C.3     1  UNL1        0.0758
     20 C         141.6197  138.0818  158.2982 C.3     1  UNL1        0.0609
     21 C         142.8496  138.4960  157.5462 C.3     1  UNL1        0.1687
     22 C         143.3052  139.9247  157.5823 C.3     1  UNL1        0.0609
     23 C         142.5309  140.9392  158.3704 C.3     1  UNL1        0.0758
     24 O         143.6240  137.4815  156.7581 O.3     1  UNL1       -0.4790
     25 C         142.9723  136.1946  156.3468 C.ar    1  UNL1        0.1393
     26 C         141.8838  136.2015  155.3149 C.ar    1  UNL1        0.0378
     27 C         141.2321  134.9145  154.9036 C.ar    1  UNL1        0.0154
     28 C         141.6690  133.6208  155.5243 C.ar    1  UNL1        0.0684
     29 CL        141.0173  132.3339  155.1131 Cl      1  UNL1       -0.0814
     30 C         142.7576  133.6139  156.5563 C.ar    1  UNL1        0.0712
     31 CL        143.1944  132.3201  157.1770 Cl      1  UNL1       -0.0813
     32 C         143.4093  134.9008  156.9676 C.ar    1  UNL1        0.0491
@<TRIPOS>UNITY_ATOM_ATTR
14 1
charge -1
@<TRIPOS>BOND
     1    14    15   ar
     2    15    16   ar
     3    15    13    1
     4    13     7    1
     5     7     8   ar
     6     8     9   ar
     7     9    10   ar
     8    10    11   ar
     9    11     1    1
    10     1     2    1
    11     2     3    1
    12     3     4    1
    13     4    17    1
    14    17    18    1
    15    18    19    1
    16    19    20    1
    17    20    21    1
    18    21    24    1
    19    24    25    1
    20    25    26   ar
    21    26    27   ar
    22    27    28   ar
    23    28    29    1
    24    28    30   ar
    25    30    31    1
    26    30    32   ar
    27    21    22    1
    28    22    23    1
    29     4     5    1
    30     5     6    1
    31    11    12   ar
    32    12     7   ar
    33     6     1    1
    34    23    18    1
    35    32    25   ar
@<TRIPOS>MOLECULE
*****
 32 35 0 0 0
SMALL
GASTEIGER

@<TRIPOS>ATOM
      1 N         141.9850  142.1223  165.1539 N.pl3   1  UNL1       -0.3075
      2 C         143.0564  143.1590  164.9885 C.3     1  UNL1        0.0908
      3 C         143.1667  143.9252  163.7036 C.3     1  UNL1        0.0229
      4 C         142.2056  143.6547  162.5842 C.3     1  UNL1        0.0194
      5 C         141.1342  142.6179  162.7497 C.3     1  UNL1        0.0229
      6 C         141.0239  141.8518  164.0345 C.3     1  UNL1        0.0908
      7 C         140.7947  141.0318  168.7794 C.ar    1  UNL1       -0.0154
      8 C         141.6539  139.8238  169.0084 C.ar    1  UNL1       -0.0038
      9 C         142.6235  139.3820  167.9526 C.ar    1  UNL1        0.0010
     10 C         142.7339  140.1481  166.6678 C.ar    1  UNL1        0.0145
     11 C         141.8747  141.3561  166.4388 C.ar    1  UNL1        0.0475
     12 C         140.9051  141.7979  167.4946 C.ar    1  UNL1        0.0106
     13 C         139.8252  141.4736  169.8352 C.3     1  UNL1        0.0680
     14 O         139.5854  143.8965  170.7421 O.co2   1  UNL1       -0.5488
     15 C         140.2181  142.5384  170.8159 C.2     1  UNL1        0.0547
     16 O         141.2436  142.2451  171.8706 O.co2   1  UNL1       -0.5488
     17 C         142.3159  144.4208  161.2994 C.3     1  UNL1        0.0722
     18 N         142.7807  143.7300  160.0518 N.3     1  UNL1       -0.2724
     19 C         143.8530  142.6839  160.1288 C.3     1  UNL1        0.0758
     20 C         144.3178  141.9930  158.8811 C.3     1  UNL1        0.0609
     21 C         143.7104  142.3482  157.5565 C.3     1  UNL1        0.1687
     22 C         142.6380  143.3943  157.4794 C.3     1  UNL1        0.0609
     23 C         142.1732  144.0851  158.7270 C.3     1  UNL1        0.0758
     24 O         144.1752  141.6573  156.3088 O.3     1  UNL1       -0.4790
     25 C         145.3557  142.1899  155.5521 C.ar    1  UNL1        0.1393
     26 C         145.1545  143.2036  154.4650 C.ar    1  UNL1        0.0378
     27 C         146.3350  143.7362  153.7082 C.ar    1  UNL1        0.0154
     28 C         147.7168  143.2550  154.0385 C.ar    1  UNL1        0.0684
     29 CL        148.8973  143.7875  153.2817 Cl      1  UNL1       -0.0814
     30 C         147.9181  142.2411  155.1256 C.ar    1  UNL1        0.0712
     31 CL        149.2998  141.7599  155.4558 Cl      1  UNL1       -0.0813
     32 C         146.7375  141.7086  155.8824 C.ar    1  UNL1        0.0491
@<TRIPOS>UNITY_ATOM_ATTR
14 1
charge -1
@<TRIPOS>BOND
     1    14    15   ar
     2    15    16   ar
     3    15    13    1
     4    13     7    1
     5     7     8   ar
     6     8     9   ar
     7     9    10   ar
     8    10    11   ar
     9    11     1    1
    10     1     2    1
    11     2     3    1
    12     3     4    1
    13     4    17    1
    14    17    18    1
    15    18    19    1
    16    19    20    1
    17    20    21    1
    18    21    24    1
    19    24    25    1
    20    25    26   ar
    21    26    27   ar
    22    27    28   ar
    23    28    29    1
    24    28    30   ar
    25    30    31    1
    26    30    32   ar
    27    21    22    1
    28    22    23    1
    29     4     5    1
    30     5     6    1
    31    11    12   ar
    32    12     7   ar
    33     6     1    1
    34    23    18    1
    35    32    25   ar
@<TRIPOS>MOLECULE
*****
 32 35 0 0 0
SMALL
GASTEIGER

@<TRIPOS>ATOM
      1 N         141.8760  135.8897  156.3337 N.pl3   1  UNL1       -0.3075
      2 C         140.5441  136.5196  156.0523 C.3     1  UNL1        0.0908
      3 C         140.1361  137.7672  156.7784 C.3     1  UNL1        0.0229
      4 C         141.0601  138.3848  157.7858 C.3     1  UNL1        0.0194
      5 C         142.3920  137.7548  158.0672 C.3     1  UNL1        0.0229
      6 C         142.7999  136.5072  157.3412 C.3     1  UNL1        0.0908
      7 C         143.7561  132.5067  155.4557 C.ar    1  UNL1       -0.0154
      8 C         143.1000  132.1469  154.1557 C.ar    1  UNL1       -0.0038
      9 C         142.0359  133.0347  153.5817 C.ar    1  UNL1        0.0010
     10 C         141.6279  134.2823  154.3077 C.ar    1  UNL1        0.0145
     11 C         142.2840  134.6420  155.6077 C.ar    1  UNL1        0.0475
     12 C         143.3481  133.7543  156.1817 C.ar    1  UNL1        0.0106
     13 C         144.8202  131.6189  156.0297 C.3     1  UNL1        0.0680
     14 O         145.7666  132.4662  158.2962 O.co2   1  UNL1       -0.5488
     15 C         144.9548  131.4744  157.5167 C.2     1  UNL1        0.0547
     16 O         144.2776  130.3383  158.2241 O.co2   1  UNL1       -0.5488
     17 C         140.6521  139.6324  158.5119 C.3     1  UNL1        0.0722
     18 N         140.1767  139.5520  159.9322 N.3     1  UNL1       -0.2724
     19 C         139.6894  138.2464  160.4873 C.3     1  UNL1        0.0758
     20 C         139.2140  138.1661  161.9078 C.3     1  UNL1        0.0609
     21 C         139.2259  139.3913  162.7730 C.3     1  UNL1        0.1687
     22 C         139.7132  140.6968  162.2180 C.3     1  UNL1        0.0609
     23 C         140.1886  140.7772  160.7976 C.3     1  UNL1        0.0758
     24 O         138.7505  139.3109  164.1934 O.3     1  UNL1       -0.4790
     25 C         139.7281  139.4606  165.3212 C.ar    1  UNL1        0.1393
     26 C         139.3164  140.1595  166.5829 C.ar    1  UNL1        0.0378
     27 C         140.2941  140.3091  167.7106 C.ar    1  UNL1        0.0154
     28 C         141.6834  139.7599  167.5766 C.ar    1  UNL1        0.0684
     29 CL        142.6611  139.9096  168.7044 Cl      1  UNL1       -0.0814
     30 C         142.0952  139.0610  166.3149 C.ar    1  UNL1        0.0712
     31 CL        143.4846  138.5118  166.1809 Cl      1  UNL1       -0.0813
     32 C         141.1176  138.9113  165.1871 C.ar    1  UNL1        0.0491
@<TRIPOS>UNITY_ATOM_ATTR
14 1
charge -1
@<TRIPOS>BOND
     1    14    15   ar
     2    15    16   ar
     3    15    13    1
     4    13     7    1
     5     7     8   ar
     6     8     9   ar
     7     9    10   ar
     8    10    11   ar
     9    11     1    1
    10     1     2    1
    11     2     3    1
    12     3     4    1
    13     4    17    1
    14    17    18    1
    15    18    19    1
    16    19    20    1
    17    20    21    1
    18    21    24    1
    19    24    25    1
    20    25    26   ar
    21    26    27   ar
    22    27    28   ar
    23    28    29    1
    24    28    30   ar
    25    30    31    1
    26    30    32   ar
    27    21    22    1
    28    22    23    1
    29     4     5    1
    30     5     6    1
    31    11    12   ar
    32    12     7   ar
    33     6     1    1
    34    23    18    1
    35    32    25   ar
@<TRIPOS>MOLECULE
*****
 32 35 0 0 0
SMALL
GASTEIGER

@<TRIPOS>ATOM
      1 N         141.9868  135.5947  156.0568 N.pl3   1  UNL1       -0.3075
      2 C         142.8714  136.2607  157.0686 C.3     1  UNL1        0.0908
      3 C         142.4434  137.5491  157.7067 C.3     1  UNL1        0.0229
      4 C         141.1308  138.1714  157.3328 C.3     1  UNL1        0.0194
      5 C         140.2462  137.5053  156.3209 C.3     1  UNL1        0.0229
      6 C         140.6742  136.2170  155.6829 C.3     1  UNL1        0.0908
      7 C         143.8898  132.1676  155.4371 C.ar    1  UNL1       -0.0154
      8 C         143.2708  131.7297  154.1429 C.ar    1  UNL1       -0.0038
      9 C         142.2238  132.5800  153.4867 C.ar    1  UNL1        0.0010
     10 C         141.7958  133.8684  154.1246 C.ar    1  UNL1        0.0145
     11 C         142.4148  134.3063  155.4188 C.ar    1  UNL1        0.0475
     12 C         143.4618  133.4559  156.0751 C.ar    1  UNL1        0.0106
     13 C         144.9368  131.3173  156.0934 C.3     1  UNL1        0.0680
     14 O         145.8349  132.3560  158.2990 O.co2   1  UNL1       -0.5488
     15 C         145.0528  131.2911  157.5886 C.2     1  UNL1        0.0547
     16 O         144.3869  130.2001  158.3736 O.co2   1  UNL1       -0.5488
     17 C         140.7028  139.4597  157.9707 C.3     1  UNL1        0.0722
     18 N         139.9627  139.4410  159.2753 N.3     1  UNL1       -0.2724
     19 C         140.5976  138.8297  160.4890 C.3     1  UNL1        0.0758
     20 C         139.8574  138.8110  161.7936 C.3     1  UNL1        0.0609
     21 C         138.4825  139.4036  161.8844 C.3     1  UNL1        0.1687
     22 C         137.8476  140.0149  160.6706 C.3     1  UNL1        0.0609
     23 C         138.5877  140.0336  159.3661 C.3     1  UNL1        0.0758
     24 O         137.7424  139.3849  163.1889 O.3     1  UNL1       -0.4790
     25 C         138.3964  139.9159  164.4300 C.ar    1  UNL1        0.1393
     26 C         138.4936  139.0543  165.6539 C.ar    1  UNL1        0.0378
     27 C         139.1477  139.5853  166.8950 C.ar    1  UNL1        0.0154
     28 C         139.7046  140.9780  166.9121 C.ar    1  UNL1        0.0684
     29 CL        140.3586  141.5090  168.1531 Cl      1  UNL1       -0.0814
     30 C         139.6074  141.8397  165.6881 C.ar    1  UNL1        0.0712
     31 CL        140.1643  143.2323  165.7052 Cl      1  UNL1       -0.0813
     32 C         138.9533  141.3087  164.4470 C.ar    1  UNL1        0.0491
@<TRIPOS>UNITY_ATOM_ATTR
14 1
charge -1
@<TRIPOS>BOND
     1    14    15   ar
     2    15    16   ar
     3    15    13    1
     4    13     7    1
     5     7     8   ar
     6     8     9   ar
     7     9    10   ar
     8    10    11   ar
     9    11     1    1
    10     1     2    1
    11     2     3    1
    12     3     4    1
    13     4    17    1
    14    17    18    1
    15    18    19    1
    16    19    20    1
    17    20    21    1
    18    21    24    1
    19    24    25    1
    20    25    26   ar
    21    26    27   ar
    22    27    28   ar
    23    28    29    1
    24    28    30   ar
    25    30    31    1
    26    30    32   ar
    27    21    22    1
    28    22    23    1
    29     4     5    1
    30     5     6    1
    31    11    12   ar
    32    12     7   ar
    33     6     1    1
    34    23    18    1
    35    32    25   ar
@<TRIPOS>MOLECULE
*****
 32 35 0 0 0
SMALL
GASTEIGER

@<TRIPOS>ATOM
      1 N         141.6529  136.3652  156.4556 N.pl3   1  UNL1       -0.3075
      2 C         140.3261  137.0492  156.6020 C.3     1  UNL1        0.0908
      3 C         140.1417  138.1135  157.6429 C.3     1  UNL1        0.0229
      4 C         141.2843  138.4937  158.5374 C.3     1  UNL1        0.0194
      5 C         142.6112  137.8095  158.3909 C.3     1  UNL1        0.0229
      6 C         142.7955  136.7453  157.3500 C.3     1  UNL1        0.0908
      7 C         142.4185  132.8490  154.7822 C.ar    1  UNL1       -0.0154
      8 C         142.2060  133.1725  153.3330 C.ar    1  UNL1       -0.0038
      9 C         141.8092  134.5602  152.9246 C.ar    1  UNL1        0.0010
     10 C         141.6248  135.6244  153.9655 C.ar    1  UNL1        0.0145
     11 C         141.8373  135.3009  155.4147 C.ar    1  UNL1        0.0475
     12 C         142.2341  133.9132  155.8230 C.ar    1  UNL1        0.0106
     13 C         142.8153  131.4613  155.1905 C.3     1  UNL1        0.0680
     14 O         145.2231  131.8642  156.0794 O.co2   1  UNL1       -0.5488
     15 C         144.2648  131.0780  155.2346 C.2     1  UNL1        0.0547
     16 O         144.7561  129.9086  154.4338 O.co2   1  UNL1       -0.5488
     17 C         141.1000  139.5578  159.5783 C.3     1  UNL1        0.0722
     18 N         141.5553  139.3160  160.9868 N.3     1  UNL1       -0.2724
     19 C         141.2379  138.0163  161.6650 C.3     1  UNL1        0.0758
     20 C         141.6932  137.7745  163.0737 C.3     1  UNL1        0.0609
     21 C         142.4660  138.8324  163.8041 C.3     1  UNL1        0.1687
     22 C         142.7835  140.1321  163.1259 C.3     1  UNL1        0.0609
     23 C         142.3282  140.3739  161.7174 C.3     1  UNL1        0.0758
     24 O         142.9213  138.5906  165.2127 O.3     1  UNL1       -0.4790
     25 C         142.1093  139.1082  166.3627 C.ar    1  UNL1        0.1393
     26 C         140.6677  139.4697  166.1603 C.ar    1  UNL1        0.0378
     27 C         139.8557  139.9874  167.3103 C.ar    1  UNL1        0.0154
     28 C         140.4852  140.1436  168.6628 C.ar    1  UNL1        0.0684
     29 CL        139.6732  140.6612  169.8129 Cl      1  UNL1       -0.0814
     30 C         141.9269  139.7820  168.8653 C.ar    1  UNL1        0.0712
     31 CL        142.5565  139.9382  170.2178 Cl      1  UNL1       -0.0813
     32 C         142.7389  139.2644  167.7152 C.ar    1  UNL1        0.0491
@<TRIPOS>UNITY_ATOM_ATTR
14 1
charge -1
@<TRIPOS>BOND
     1    14    15   ar
     2    15    16   ar
     3    15    13    1
     4    13     7    1
     5     7     8   ar
     6     8     9   ar
     7     9    10   ar
     8    10    11   ar
     9    11     1    1
    10     1     2    1
    11     2     3    1
    12     3     4    1
    13     4    17    1
    14    17    18    1
    15    18    19    1
    16    19    20    1
    17    20    21    1
    18    21    24    1
    19    24    25    1
    20    25    26   ar
    21    26    27   ar
    22    27    28   ar
    23    28    29    1
    24    28    30   ar
    25    30    31    1
    26    30    32   ar
    27    21    22    1
    28    22    23    1
    29     4     5    1
    30     5     6    1
    31    11    12   ar
    32    12     7   ar
    33     6     1    1
    34    23    18    1
    35    32    25   ar
@<TRIPOS>MOLECULE
*****
 32 35 0 0 0
SMALL
GASTEIGER

@<TRIPOS>ATOM
      1 N         140.4296  140.2631  164.7584 N.pl3   1  UNL1       -0.3075
      2 C         138.9664  139.9791  164.5909 C.3     1  UNL1        0.0908
      3 C         138.4669  139.3334  163.3324 C.3     1  UNL1        0.0229
      4 C         139.4308  138.9719  162.2415 C.3     1  UNL1        0.0194
      5 C         140.8941  139.2560  162.4090 C.3     1  UNL1        0.0229
      6 C         141.3935  139.9016  163.6674 C.3     1  UNL1        0.0908
      7 C         140.5449  141.6212  168.4857 C.ar    1  UNL1       -0.0154
      8 C         141.9279  142.2000  168.5338 C.ar    1  UNL1       -0.0038
      9 C         142.8115  142.1332  167.3235 C.ar    1  UNL1        0.0010
     10 C         142.3121  141.4876  166.0651 C.ar    1  UNL1        0.0145
     11 C         140.9291  140.9088  166.0169 C.ar    1  UNL1        0.0475
     12 C         140.0455  140.9756  167.2272 C.ar    1  UNL1        0.0106
     13 C         139.6614  141.6880  169.6960 C.3     1  UNL1        0.0680
     14 O         140.7087  142.1337  172.0315 O.co2   1  UNL1       -0.5488
     15 C         139.9900  142.6333  170.8132 C.2     1  UNL1        0.0547
     16 O         139.6001  144.0783  170.7124 O.co2   1  UNL1       -0.5488
     17 C         138.9314  138.3263  160.9830 C.3     1  UNL1        0.0722
     18 N         138.9281  139.0959  159.6956 N.3     1  UNL1       -0.2724
     19 C         139.8790  138.7238  158.5969 C.3     1  UNL1        0.0758
     20 C         139.8757  139.4936  157.3094 C.3     1  UNL1        0.0609
     21 C         138.9215  140.6354  157.1206 C.3     1  UNL1        0.1687
     22 C         137.9705  141.0075  158.2194 C.3     1  UNL1        0.0609
     23 C         137.9738  140.2378  159.5068 C.3     1  UNL1        0.0758
     24 O         138.9182  141.4050  155.8332 O.3     1  UNL1       -0.4790
     25 C         138.9114  142.9048  155.8560 C.ar    1  UNL1        0.1393
     26 C         137.8392  143.6611  155.1291 C.ar    1  UNL1        0.0378
     27 C         137.8324  145.1609  155.1520 C.ar    1  UNL1        0.0154
     28 C         138.8977  145.9045  155.9017 C.ar    1  UNL1        0.0684
     29 CL        138.8909  147.4043  155.9245 Cl      1  UNL1       -0.0814
     30 C         139.9700  145.1482  156.6286 C.ar    1  UNL1        0.0712
     31 CL        141.0354  145.8917  157.3784 Cl      1  UNL1       -0.0813
     32 C         139.9768  143.6484  156.6058 C.ar    1  UNL1        0.0491
@<TRIPOS>UNITY_ATOM_ATTR
14 1
charge -1
@<TRIPOS>BOND
     1    14    15   ar
     2    15    16   ar
     3    15    13    1
     4    13     7    1
     5     7     8   ar
     6     8     9   ar
     7     9    10   ar
     8    10    11   ar
     9    11     1    1
    10     1     2    1
    11     2     3    1
    12     3     4    1
    13     4    17    1
    14    17    18    1
    15    18    19    1
    16    19    20    1
    17    20    21    1
    18    21    24    1
    19    24    25    1
    20    25    26   ar
    21    26    27   ar
    22    27    28   ar
    23    28    29    1
    24    28    30   ar
    25    30    31    1
    26    30    32   ar
    27    21    22    1
    28    22    23    1
    29     4     5    1
    30     5     6    1
    31    11    12   ar
    32    12     7   ar
    33     6     1    1
    34    23    18    1
    35    32    25   ar
