@<TRIPOS>MOLECULE
*****
 39 43 0 0 0
SMALL
GASTEIGER

@<TRIPOS>ATOM
      1 N         142.1854  141.7396  162.6451 N.am    1  UNL1       -0.2658
      2 C         142.1973  140.7050  161.5591 C.2     1  UNL1        0.3083
      3 O         142.2495  139.2479  161.9119 O.2     1  UNL1       -0.2521
      4 N         142.1569  141.1273  160.1204 N.am    1  UNL1       -0.2667
      5 H         142.1512  142.6959  162.4136 H       1  UNL1        0.1565
      6 H         142.1226  142.0836  159.8889 H       1  UNL1        0.1565
      7 C         140.9486  141.1494  164.8524 C.ar    1  UNL1        0.0647
      8 C         142.2258  141.3172  164.0839 C.ar    1  UNL1        0.0844
      9 C         143.5434  141.0626  164.7541 C.ar    1  UNL1        0.1147
     10 N         143.5837  140.6402  166.1929 N.ar    1  UNL1       -0.2425
     11 C         142.3065  140.4724  166.9614 C.ar    1  UNL1        0.0827
     12 C         142.3469  140.0500  168.4001 C.ar    1  UNL1        0.0214
     13 C         141.0696  139.8822  169.1686 C.ar    1  UNL1        0.0312
     14 C         139.7521  140.1368  168.4983 C.ar    1  UNL1        0.1403
     15 F         138.4749  139.9690  169.2668 F       1  UNL1       -0.2042
     16 C         139.7117  140.5592  167.0596 C.ar    1  UNL1        0.0324
     17 C         140.9889  140.7270  166.2911 C.ar    1  UNL1        0.0345
     18 C         139.7236  143.8864  164.9429 C.3     1  UNL1        0.0241
     19 C         139.0185  142.7724  164.2274 C.3     1  UNL1        0.1025
     20 C         137.7010  143.0270  163.5571 C.3     1  UNL1        0.1618
     21 O         136.9960  141.9130  162.8415 O.3     1  UNL1       -0.3502
     22 C         137.6085  140.5445  162.7962 C.3     1  UNL1        0.1636
     23 C         138.9260  140.2900  163.4665 C.3     1  UNL1        0.1231
     24 N         139.6310  141.4040  164.1821 N.pl3   1  UNL1       -0.3033
     25 C         142.1687  140.0927  159.0344 C.ar    1  UNL1        0.0720
     26 C         143.4472  139.7710  158.3189 C.ar    1  UNL1        0.1167
     27 N         143.4590  138.7363  157.2329 N.ar    1  UNL1       -0.2081
     28 C         142.1923  138.0234  156.8624 C.ar    1  UNL1        0.2356
     29 C         140.9139  138.3451  157.5779 C.ar    1  UNL1        0.1119
     30 CL        139.6472  137.6321  157.2075 Cl      1  UNL1       -0.0773
     31 C         140.9021  139.3797  158.6639 C.ar    1  UNL1        0.0324
     32 O         142.2042  136.9887  155.7764 O.3     1  UNL1       -0.4633
     33 C         142.4021  135.5423  156.1207 C.3     1  UNL1        0.1704
     34 C         143.3499  135.1551  157.2170 C.3     1  UNL1        0.0609
     35 C         143.5478  133.7087  157.5612 C.3     1  UNL1        0.0758
     36 N         142.7979  132.6493  156.8093 N.3     1  UNL1       -0.2713
     37 C         142.9958  131.2028  157.1537 C.3     1  UNL1        0.0896
     38 C         141.8500  133.0364  155.7131 C.3     1  UNL1        0.0758
     39 C         141.6521  134.4830  155.3688 C.3     1  UNL1        0.0609
@<TRIPOS>BOND
     1    19    18    1
     2    19    20    1
     3    20    21    1
     4    21    22    1
     5    22    23    1
     6    23    24    1
     7    24     7    1
     8     7     8   ar
     9     8     1    1
    10     1     2   am
    11     2     3    2
    12     2     4   am
    13     4    25    1
    14    25    26   ar
    15    26    27   ar
    16    27    28   ar
    17    28    32    1
    18    32    33    1
    19    33    34    1
    20    34    35    1
    21    35    36    1
    22    36    37    1
    23    36    38    1
    24    38    39    1
    25    28    29   ar
    26    29    30    1
    27    29    31   ar
    28     8     9   ar
    29     9    10   ar
    30    10    11   ar
    31    11    12   ar
    32    12    13   ar
    33    13    14   ar
    34    14    15    1
    35    14    16   ar
    36    16    17   ar
    37    24    19    1
    38    17     7   ar
    39    31    25   ar
    40    17    11   ar
    41    39    33    1
    42     1     5    1
    43     4     6    1
@<TRIPOS>MOLECULE
*****
 39 43 0 0 0
SMALL
GASTEIGER

@<TRIPOS>ATOM
      1 N         140.3919  141.1659  162.4995 N.am    1  UNL1       -0.2658
      2 C         140.8377  140.1976  161.4442 C.2     1  UNL1        0.3083
      3 O         141.5196  138.9208  161.8377 O.2     1  UNL1       -0.2521
      4 N         140.6015  140.5060  159.9954 N.am    1  UNL1       -0.2667
      5 H         139.9443  142.0038  162.2412 H       1  UNL1        0.1565
      6 H         140.1540  141.3440  159.7371 H       1  UNL1        0.1565
      7 C         141.6477  141.6370  164.7246 C.ar    1  UNL1        0.0647
      8 C         140.6281  140.8574  163.9484 C.ar    1  UNL1        0.0844
      9 C         139.8447  139.7693  164.6209 C.ar    1  UNL1        0.1147
     10 N         140.0809  139.4608  166.0698 N.ar    1  UNL1       -0.2425
     11 C         141.1005  140.2404  166.8460 C.ar    1  UNL1        0.0827
     12 C         141.3367  139.9320  168.2948 C.ar    1  UNL1        0.0214
     13 C         142.3563  140.7116  169.0711 C.ar    1  UNL1        0.0312
     14 C         143.1397  141.7997  168.3985 C.ar    1  UNL1        0.1403
     15 F         144.1593  142.5793  169.1748 F       1  UNL1       -0.2042
     16 C         142.9035  142.1082  166.9497 C.ar    1  UNL1        0.0324
     17 C         141.8839  141.3286  166.1734 C.ar    1  UNL1        0.0345
     18 C         144.2023  140.9818  163.2947 C.3     1  UNL1        0.0241
     19 C         143.7084  142.3975  163.3371 C.3     1  UNL1        0.1025
     20 C         144.4917  143.4856  162.6645 C.3     1  UNL1        0.1618
     21 O         143.9978  144.9013  162.7069 O.3     1  UNL1       -0.3502
     22 C         142.7206  145.2289  163.4219 C.3     1  UNL1        0.1636
     23 C         141.9372  144.1408  164.0944 C.3     1  UNL1        0.1231
     24 N         142.4311  142.7251  164.0520 N.pl3   1  UNL1       -0.3033
     25 C         141.0473  139.5377  158.9401 C.ar    1  UNL1        0.0720
     26 C         142.5096  139.2786  158.7294 C.ar    1  UNL1        0.1167
     27 N         142.9554  138.3103  157.6741 N.ar    1  UNL1       -0.2081
     28 C         141.9388  137.6011  156.8295 C.ar    1  UNL1        0.2356
     29 C         140.4765  137.8601  157.0401 C.ar    1  UNL1        0.1119
     30 CL        139.4598  137.1509  156.1954 Cl      1  UNL1       -0.0773
     31 C         140.0307  138.8284  158.0954 C.ar    1  UNL1        0.0324
     32 O         142.3846  136.6328  155.7742 O.3     1  UNL1       -0.4633
     33 C         142.5237  135.1760  156.1035 C.3     1  UNL1        0.1704
     34 C         143.5204  134.7316  157.1326 C.3     1  UNL1        0.0609
     35 C         143.6595  133.2749  157.4620 C.3     1  UNL1        0.0758
     36 N         142.8019  132.2625  156.7623 N.3     1  UNL1       -0.2713
     37 C         142.9411  130.8057  157.0917 C.3     1  UNL1        0.0896
     38 C         141.8052  132.7069  155.7332 C.3     1  UNL1        0.0758
     39 C         141.6661  134.1637  155.4038 C.3     1  UNL1        0.0609
@<TRIPOS>BOND
     1    19    18    1
     2    19    20    1
     3    20    21    1
     4    21    22    1
     5    22    23    1
     6    23    24    1
     7    24     7    1
     8     7     8   ar
     9     8     1    1
    10     1     2   am
    11     2     3    2
    12     2     4   am
    13     4    25    1
    14    25    26   ar
    15    26    27   ar
    16    27    28   ar
    17    28    32    1
    18    32    33    1
    19    33    34    1
    20    34    35    1
    21    35    36    1
    22    36    37    1
    23    36    38    1
    24    38    39    1
    25    28    29   ar
    26    29    30    1
    27    29    31   ar
    28     8     9   ar
    29     9    10   ar
    30    10    11   ar
    31    11    12   ar
    32    12    13   ar
    33    13    14   ar
    34    14    15    1
    35    14    16   ar
    36    16    17   ar
    37    24    19    1
    38    17     7   ar
    39    31    25   ar
    40    17    11   ar
    41    39    33    1
    42     1     5    1
    43     4     6    1
@<TRIPOS>MOLECULE
*****
 39 43 0 0 0
SMALL
GASTEIGER

@<TRIPOS>ATOM
      1 N         140.3799  141.0274  162.4218 N.am    1  UNL1       -0.2658
      2 C         140.8409  140.0568  161.3752 C.2     1  UNL1        0.3083
      3 O         141.5448  138.7955  161.7800 O.2     1  UNL1       -0.2521
      4 N         140.5980  140.3474  159.9238 N.am    1  UNL1       -0.2667
      5 H         139.9179  141.8552  162.1561 H       1  UNL1        0.1565
      6 H         140.1360  141.1752  159.6581 H       1  UNL1        0.1565
      7 C         141.6179  141.5518  164.6450 C.ar    1  UNL1        0.0647
      8 C         140.6228  140.7367  163.8732 C.ar    1  UNL1        0.0844
      9 C         139.8707  139.6311  164.5528 C.ar    1  UNL1        0.1147
     10 N         140.1136  139.3405  166.0043 N.ar    1  UNL1       -0.2425
     11 C         141.1087  140.1555  166.7760 C.ar    1  UNL1        0.0827
     12 C         141.3516  139.8649  168.2274 C.ar    1  UNL1        0.0214
     13 C         142.3467  140.6799  168.9991 C.ar    1  UNL1        0.0312
     14 C         143.0988  141.7855  168.3196 C.ar    1  UNL1        0.1403
     15 F         144.0938  142.6005  169.0913 F       1  UNL1       -0.2042
     16 C         142.8559  142.0762  166.8681 C.ar    1  UNL1        0.0324
     17 C         141.8608  141.2612  166.0964 C.ar    1  UNL1        0.0345
     18 C         140.4782  144.3262  164.5865 C.3     1  UNL1        0.0241
     19 C         141.8001  144.0446  163.9361 C.3     1  UNL1        0.1025
     20 C         142.5523  145.1502  163.2565 C.3     1  UNL1        0.1618
     21 O         143.8742  144.8686  162.6060 O.3     1  UNL1       -0.3502
     22 C         144.4441  143.4814  162.6353 C.3     1  UNL1        0.1636
     23 C         143.6920  142.3758  163.3149 C.3     1  UNL1        0.1231
     24 N         142.3700  142.6574  163.9653 N.pl3   1  UNL1       -0.3033
     25 C         141.0590  139.3768  158.8772 C.ar    1  UNL1        0.0720
     26 C         142.5246  139.1242  158.6821 C.ar    1  UNL1        0.1167
     27 N         142.9856  138.1536  157.6355 N.ar    1  UNL1       -0.2081
     28 C         141.9810  137.4356  156.7840 C.ar    1  UNL1        0.2356
     29 C         140.5154  137.6881  156.9791 C.ar    1  UNL1        0.1119
     30 CL        139.5107  136.9701  156.1275 Cl      1  UNL1       -0.0773
     31 C         140.0544  138.6587  158.0257 C.ar    1  UNL1        0.0324
     32 O         142.4420  136.4649  155.7374 O.3     1  UNL1       -0.4633
     33 C         142.6202  135.0165  156.0842 C.3     1  UNL1        0.1704
     34 C         141.7472  133.9789  155.4430 C.3     1  UNL1        0.0609
     35 C         141.9254  132.5305  155.7898 C.3     1  UNL1        0.0758
     36 N         142.9766  132.1196  156.7778 N.3     1  UNL1       -0.2713
     37 C         143.1547  130.6712  157.1246 C.3     1  UNL1        0.0896
     38 C         143.8496  133.1572  157.4190 C.3     1  UNL1        0.0758
     39 C         143.6714  134.6057  157.0722 C.3     1  UNL1        0.0609
@<TRIPOS>BOND
     1    19    18    1
     2    19    20    1
     3    20    21    1
     4    21    22    1
     5    22    23    1
     6    23    24    1
     7    24     7    1
     8     7     8   ar
     9     8     1    1
    10     1     2   am
    11     2     3    2
    12     2     4   am
    13     4    25    1
    14    25    26   ar
    15    26    27   ar
    16    27    28   ar
    17    28    32    1
    18    32    33    1
    19    33    34    1
    20    34    35    1
    21    35    36    1
    22    36    37    1
    23    36    38    1
    24    38    39    1
    25    28    29   ar
    26    29    30    1
    27    29    31   ar
    28     8     9   ar
    29     9    10   ar
    30    10    11   ar
    31    11    12   ar
    32    12    13   ar
    33    13    14   ar
    34    14    15    1
    35    14    16   ar
    36    16    17   ar
    37    24    19    1
    38    17     7   ar
    39    31    25   ar
    40    17    11   ar
    41    39    33    1
    42     1     5    1
    43     4     6    1
@<TRIPOS>MOLECULE
*****
 39 43 0 0 0
SMALL
GASTEIGER

@<TRIPOS>ATOM
      1 N         142.1267  141.5027  162.5068 N.am    1  UNL1       -0.2658
      2 C         142.1541  140.4697  161.4195 C.2     1  UNL1        0.3083
      3 O         142.2527  139.0145  161.7698 O.2     1  UNL1       -0.2521
      4 N         142.0827  140.8919  159.9819 N.am    1  UNL1       -0.2667
      5 H         142.0620  142.4578  162.2769 H       1  UNL1        0.1565
      6 H         142.0180  141.8470  159.7520 H       1  UNL1        0.1565
      7 C         140.9477  141.0178  164.7706 C.ar    1  UNL1        0.0647
      8 C         142.1981  141.0805  163.9444 C.ar    1  UNL1        0.0844
      9 C         143.5198  140.7209  164.5558 C.ar    1  UNL1        0.1147
     10 N         143.5911  140.2986  165.9934 N.ar    1  UNL1       -0.2425
     11 C         142.3407  140.2360  166.8196 C.ar    1  UNL1        0.0827
     12 C         142.4120  139.8137  168.2571 C.ar    1  UNL1        0.0214
     13 C         141.1616  139.7511  169.0833 C.ar    1  UNL1        0.0312
     14 C         139.8399  140.1107  168.4720 C.ar    1  UNL1        0.1403
     15 F         138.5895  140.0481  169.2982 F       1  UNL1       -0.2042
     16 C         139.7686  140.5330  167.0343 C.ar    1  UNL1        0.0324
     17 C         141.0190  140.5956  166.2081 C.ar    1  UNL1        0.0345
     18 C         139.2559  138.8925  163.4976 C.3     1  UNL1        0.0241
     19 C         138.7801  140.3148  163.5227 C.3     1  UNL1        0.1025
     20 C         137.4584  140.6744  162.9113 C.3     1  UNL1        0.1618
     21 O         136.9827  142.0968  162.9364 O.3     1  UNL1       -0.3502
     22 C         137.8285  143.1594  163.5729 C.3     1  UNL1        0.1636
     23 C         139.1502  142.7998  164.1843 C.3     1  UNL1        0.1231
     24 N         139.6260  141.3775  164.1592 N.pl3   1  UNL1       -0.3033
     25 C         142.1101  139.8590  158.8946 C.ar    1  UNL1        0.0720
     26 C         143.4067  139.5049  158.2289 C.ar    1  UNL1        0.1167
     27 N         143.4341  138.4720  157.1416 N.ar    1  UNL1       -0.2081
     28 C         142.1647  137.7930  156.7200 C.ar    1  UNL1        0.2356
     29 C         140.8681  138.1470  157.3858 C.ar    1  UNL1        0.1119
     30 CL        139.5986  137.4680  156.9643 Cl      1  UNL1       -0.0773
     31 C         140.8407  139.1800  158.4731 C.ar    1  UNL1        0.0324
     32 O         142.1921  136.7600  155.6327 O.3     1  UNL1       -0.4633
     33 C         142.3673  135.3111  155.9790 C.3     1  UNL1        0.1704
     34 C         141.5951  134.2632  155.2335 C.3     1  UNL1        0.0609
     35 C         141.7703  132.8143  155.5797 C.3     1  UNL1        0.0758
     36 N         142.7176  132.4132  156.6714 N.3     1  UNL1       -0.2713
     37 C         142.8928  130.9642  157.0177 C.3     1  UNL1        0.0896
     38 C         143.4897  133.4611  157.4169 C.3     1  UNL1        0.0758
     39 C         143.3146  134.9101  157.0707 C.3     1  UNL1        0.0609
@<TRIPOS>BOND
     1    19    18    1
     2    19    20    1
     3    20    21    1
     4    21    22    1
     5    22    23    1
     6    23    24    1
     7    24     7    1
     8     7     8   ar
     9     8     1    1
    10     1     2   am
    11     2     3    2
    12     2     4   am
    13     4    25    1
    14    25    26   ar
    15    26    27   ar
    16    27    28   ar
    17    28    32    1
    18    32    33    1
    19    33    34    1
    20    34    35    1
    21    35    36    1
    22    36    37    1
    23    36    38    1
    24    38    39    1
    25    28    29   ar
    26    29    30    1
    27    29    31   ar
    28     8     9   ar
    29     9    10   ar
    30    10    11   ar
    31    11    12   ar
    32    12    13   ar
    33    13    14   ar
    34    14    15    1
    35    14    16   ar
    36    16    17   ar
    37    24    19    1
    38    17     7   ar
    39    31    25   ar
    40    17    11   ar
    41    39    33    1
    42     1     5    1
    43     4     6    1
@<TRIPOS>MOLECULE
*****
 39 43 0 0 0
SMALL
GASTEIGER

@<TRIPOS>ATOM
      1 N         142.2239  141.8031  161.3967 N.am    1  UNL1       -0.2658
      2 C         142.2247  140.6154  160.4806 C.2     1  UNL1        0.3083
      3 O         142.4100  139.2362  161.0408 O.2     1  UNL1       -0.2521
      4 N         142.0401  140.8067  159.0044 N.am    1  UNL1       -0.2667
      5 H         142.1023  142.7083  161.0291 H       1  UNL1        0.1565
      6 H         141.9185  141.7119  158.6368 H       1  UNL1        0.1565
      7 C         141.4703  142.2737  163.8382 C.ar    1  UNL1        0.0647
      8 C         142.4085  141.6117  162.8730 C.ar    1  UNL1        0.0844
      9 C         143.5313  140.7584  163.3841 C.ar    1  UNL1        0.1147
     10 N         143.7158  140.5670  164.8604 N.ar    1  UNL1       -0.2425
     11 C         142.7776  141.2289  165.8256 C.ar    1  UNL1        0.0827
     12 C         142.9621  141.0376  167.3018 C.ar    1  UNL1        0.0214
     13 C         142.0239  141.6995  168.2670 C.ar    1  UNL1        0.0312
     14 C         140.9011  142.5529  167.7559 C.ar    1  UNL1        0.1403
     15 F         139.9629  143.2148  168.7211 F       1  UNL1       -0.2042
     16 C         140.7166  142.7443  166.2796 C.ar    1  UNL1        0.0324
     17 C         141.6548  142.0823  165.3144 C.ar    1  UNL1        0.0345
     18 C         141.8918  145.2142  163.4193 C.3     1  UNL1        0.0241
     19 C         140.5583  144.5973  163.1176 C.3     1  UNL1        0.1025
     20 C         139.4355  145.4505  162.6065 C.3     1  UNL1        0.1618
     21 O         138.1019  144.8336  162.3049 O.3     1  UNL1       -0.3502
     22 C         137.8912  143.3633  162.5143 C.3     1  UNL1        0.1636
     23 C         139.0139  142.5100  163.0254 C.3     1  UNL1        0.1231
     24 N         140.3475  143.1270  163.3271 N.pl3   1  UNL1       -0.3033
     25 C         142.0408  139.6190  158.0883 C.ar    1  UNL1        0.0720
     26 C         140.8759  138.6740  158.0845 C.ar    1  UNL1        0.1167
     27 N         140.8767  137.4863  157.1683 N.ar    1  UNL1       -0.2081
     28 C         142.0423  137.2435  156.2560 C.ar    1  UNL1        0.2356
     29 C         143.2072  138.1884  156.2599 C.ar    1  UNL1        0.1119
     30 CL        144.3729  137.9457  155.3475 Cl      1  UNL1       -0.0773
     31 C         143.2064  139.3762  157.1760 C.ar    1  UNL1        0.0324
     32 O         142.0430  136.0558  155.3399 O.3     1  UNL1       -0.4633
     33 C         142.4190  134.7026  155.8666 C.3     1  UNL1        0.1704
     34 C         143.5285  134.5689  156.8673 C.3     1  UNL1        0.0609
     35 C         143.9045  133.2157  157.3939 C.3     1  UNL1        0.0758
     36 N         143.1711  131.9961  156.9200 N.3     1  UNL1       -0.2713
     37 C         143.5471  130.6429  157.4468 C.3     1  UNL1        0.0896
     38 C         142.0616  132.1297  155.9195 C.3     1  UNL1        0.0758
     39 C         141.6855  133.4829  155.3927 C.3     1  UNL1        0.0609
@<TRIPOS>BOND
     1    19    18    1
     2    19    20    1
     3    20    21    1
     4    21    22    1
     5    22    23    1
     6    23    24    1
     7    24     7    1
     8     7     8   ar
     9     8     1    1
    10     1     2   am
    11     2     3    2
    12     2     4   am
    13     4    25    1
    14    25    26   ar
    15    26    27   ar
    16    27    28   ar
    17    28    32    1
    18    32    33    1
    19    33    34    1
    20    34    35    1
    21    35    36    1
    22    36    37    1
    23    36    38    1
    24    38    39    1
    25    28    29   ar
    26    29    30    1
    27    29    31   ar
    28     8     9   ar
    29     9    10   ar
    30    10    11   ar
    31    11    12   ar
    32    12    13   ar
    33    13    14   ar
    34    14    15    1
    35    14    16   ar
    36    16    17   ar
    37    24    19    1
    38    17     7   ar
    39    31    25   ar
    40    17    11   ar
    41    39    33    1
    42     1     5    1
    43     4     6    1
@<TRIPOS>MOLECULE
*****
 39 43 0 0 0
SMALL
GASTEIGER

@<TRIPOS>ATOM
      1 N         142.1673  143.2021  161.8597 N.am    1  UNL1       -0.2658
      2 C         141.6789  143.6078  160.5007 C.2     1  UNL1        0.3083
      3 O         140.9815  142.6090  159.6254 O.2     1  UNL1       -0.2521
      4 N         141.8879  145.0121  160.0170 N.am    1  UNL1       -0.2667
      5 H         142.6250  143.8576  162.4342 H       1  UNL1        0.1565
      6 H         142.3456  145.6676  160.5916 H       1  UNL1        0.1565
      7 C         140.8184  141.4842  163.2667 C.ar    1  UNL1        0.0647
      8 C         141.9583  141.7976  162.3434 C.ar    1  UNL1        0.0844
      9 C         142.8891  140.7066  161.9037 C.ar    1  UNL1        0.1147
     10 N         142.6801  139.3022  162.3874 N.ar    1  UNL1       -0.2425
     11 C         141.5402  138.9887  163.3107 C.ar    1  UNL1        0.0827
     12 C         141.3312  137.5844  163.7944 C.ar    1  UNL1        0.0214
     13 C         140.1913  137.2710  164.7177 C.ar    1  UNL1        0.0312
     14 C         139.2605  138.3619  165.1574 C.ar    1  UNL1        0.1403
     15 F         138.1207  138.0485  166.0807 F       1  UNL1       -0.2042
     16 C         139.4695  139.7664  164.6737 C.ar    1  UNL1        0.0324
     17 C         140.6094  140.0798  163.7504 C.ar    1  UNL1        0.0345
     18 C         138.3544  142.0895  161.6659 C.3     1  UNL1        0.0241
     19 C         138.6556  142.8779  162.9060 C.3     1  UNL1        0.1025
     20 C         137.7249  143.9689  163.3457 C.3     1  UNL1        0.1618
     21 O         138.0261  144.7573  164.5857 O.3     1  UNL1       -0.3502
     22 C         139.2581  144.4546  165.3861 C.3     1  UNL1        0.1636
     23 C         140.1888  143.3636  164.9464 C.3     1  UNL1        0.1231
     24 N         139.8876  142.5752  163.7064 N.pl3   1  UNL1       -0.3033
     25 C         141.3995  145.4178  158.6580 C.ar    1  UNL1        0.0720
     26 C         140.0901  146.1355  158.5150 C.ar    1  UNL1        0.1167
     27 N         139.6018  146.5411  157.1560 N.ar    1  UNL1       -0.2081
     28 C         140.4227  146.2292  155.9400 C.ar    1  UNL1        0.2356
     29 C         141.7321  145.5116  156.0831 C.ar    1  UNL1        0.1119
     30 CL        142.5532  145.1996  154.8671 Cl      1  UNL1       -0.0773
     31 C         142.2205  145.1059  157.4421 C.ar    1  UNL1        0.0324
     32 O         139.9344  146.6349  154.5810 O.3     1  UNL1       -0.4633
     33 C         139.9726  148.0769  154.1700 C.3     1  UNL1        0.1704
     34 C         140.7593  148.4919  152.9621 C.3     1  UNL1        0.0609
     35 C         140.7975  149.9340  152.5510 C.3     1  UNL1        0.0758
     36 N         140.0490  150.9611  153.3478 N.3     1  UNL1       -0.2713
     37 C         140.0872  152.4032  152.9366 C.3     1  UNL1        0.0896
     38 C         139.2623  150.5461  154.5556 C.3     1  UNL1        0.0758
     39 C         139.2241  149.1040  154.9667 C.3     1  UNL1        0.0609
@<TRIPOS>BOND
     1    19    18    1
     2    19    20    1
     3    20    21    1
     4    21    22    1
     5    22    23    1
     6    23    24    1
     7    24     7    1
     8     7     8   ar
     9     8     1    1
    10     1     2   am
    11     2     3    2
    12     2     4   am
    13     4    25    1
    14    25    26   ar
    15    26    27   ar
    16    27    28   ar
    17    28    32    1
    18    32    33    1
    19    33    34    1
    20    34    35    1
    21    35    36    1
    22    36    37    1
    23    36    38    1
    24    38    39    1
    25    28    29   ar
    26    29    30    1
    27    29    31   ar
    28     8     9   ar
    29     9    10   ar
    30    10    11   ar
    31    11    12   ar
    32    12    13   ar
    33    13    14   ar
    34    14    15    1
    35    14    16   ar
    36    16    17   ar
    37    24    19    1
    38    17     7   ar
    39    31    25   ar
    40    17    11   ar
    41    39    33    1
    42     1     5    1
    43     4     6    1
@<TRIPOS>MOLECULE
*****
 39 43 0 0 0
SMALL
GASTEIGER

@<TRIPOS>ATOM
      1 N         143.6528  142.2162  160.0725 N.am    1  UNL1       -0.2658
      2 C         142.6928  142.9356  159.1720 C.2     1  UNL1        0.3083
      3 O         141.2648  142.4846  159.0848 O.2     1  UNL1       -0.2521
      4 N         143.1606  144.1060  158.3588 N.am    1  UNL1       -0.2667
      5 H         144.5900  142.5122  160.1297 H       1  UNL1        0.1565
      6 H         144.0978  144.4020  158.4161 H       1  UNL1        0.1565
      7 C         142.6433  141.2614  162.2678 C.ar    1  UNL1        0.0647
      8 C         143.1849  141.0458  160.8857 C.ar    1  UNL1        0.0844
      9 C         143.2585  139.6599  160.3168 C.ar    1  UNL1        0.1147
     10 N         142.7906  138.4894  161.1300 N.ar    1  UNL1       -0.2425
     11 C         142.2490  138.7051  162.5121 C.ar    1  UNL1        0.0827
     12 C         141.7811  137.5348  163.3253 C.ar    1  UNL1        0.0214
     13 C         141.2396  137.7504  164.7074 C.ar    1  UNL1        0.0312
     14 C         141.1659  139.1363  165.2763 C.ar    1  UNL1        0.1403
     15 F         140.6244  139.3520  166.6584 F       1  UNL1       -0.2042
     16 C         141.6339  140.3067  164.4631 C.ar    1  UNL1        0.0324
     17 C         142.1754  140.0911  163.0810 C.ar    1  UNL1        0.0345
     18 C         144.9746  142.3863  163.7844 C.3     1  UNL1        0.0241
     19 C         143.7353  143.2099  163.5949 C.3     1  UNL1        0.1025
     20 C         143.6617  144.5958  164.1638 C.3     1  UNL1        0.1618
     21 O         142.4224  145.4194  163.9743 O.3     1  UNL1       -0.3502
     22 C         141.2568  144.8570  163.2161 C.3     1  UNL1        0.1636
     23 C         141.3304  143.4711  162.6473 C.3     1  UNL1        0.1231
     24 N         142.5697  142.6475  162.8367 N.pl3   1  UNL1       -0.3033
     25 C         142.2006  144.8253  157.4584 C.ar    1  UNL1        0.0720
     26 C         141.1479  145.7185  158.0449 C.ar    1  UNL1        0.1167
     27 N         140.1879  146.4379  157.1445 N.ar    1  UNL1       -0.2081
     28 C         140.2805  146.2641  155.6575 C.ar    1  UNL1        0.2356
     29 C         141.3332  145.3709  155.0710 C.ar    1  UNL1        0.1119
     30 CL        141.4258  145.1971  153.5839 Cl      1  UNL1       -0.0773
     31 C         142.2932  144.6515  155.9714 C.ar    1  UNL1        0.0324
     32 O         139.3205  146.9835  154.7571 O.3     1  UNL1       -0.4633
     33 C         139.4038  148.4739  154.6095 C.3     1  UNL1        0.1704
     34 C         140.2205  149.0736  153.5034 C.3     1  UNL1        0.0609
     35 C         140.3038  150.5640  153.3559 C.3     1  UNL1        0.0758
     36 N         139.5704  151.4547  154.3144 N.3     1  UNL1       -0.2713
     37 C         139.6538  152.9451  154.1669 C.3     1  UNL1        0.0896
     38 C         138.7537  150.8550  155.4205 C.3     1  UNL1        0.0758
     39 C         138.6704  149.3646  155.5680 C.3     1  UNL1        0.0609
@<TRIPOS>BOND
     1    19    18    1
     2    19    20    1
     3    20    21    1
     4    21    22    1
     5    22    23    1
     6    23    24    1
     7    24     7    1
     8     7     8   ar
     9     8     1    1
    10     1     2   am
    11     2     3    2
    12     2     4   am
    13     4    25    1
    14    25    26   ar
    15    26    27   ar
    16    27    28   ar
    17    28    32    1
    18    32    33    1
    19    33    34    1
    20    34    35    1
    21    35    36    1
    22    36    37    1
    23    36    38    1
    24    38    39    1
    25    28    29   ar
    26    29    30    1
    27    29    31   ar
    28     8     9   ar
    29     9    10   ar
    30    10    11   ar
    31    11    12   ar
    32    12    13   ar
    33    13    14   ar
    34    14    15    1
    35    14    16   ar
    36    16    17   ar
    37    24    19    1
    38    17     7   ar
    39    31    25   ar
    40    17    11   ar
    41    39    33    1
    42     1     5    1
    43     4     6    1
@<TRIPOS>MOLECULE
*****
 39 43 0 0 0
SMALL
GASTEIGER

@<TRIPOS>ATOM
      1 N         140.1635  138.1889  163.9558 N.am    1  UNL1       -0.2658
      2 C         139.6527  138.8721  162.7219 C.2     1  UNL1        0.3083
      3 O         138.9570  140.1965  162.8315 O.2     1  UNL1       -0.2521
      4 N         139.8375  138.2308  161.3786 N.am    1  UNL1       -0.2667
      5 H         140.6201  137.3197  163.8839 H       1  UNL1        0.1565
      6 H         140.2940  137.3615  161.3067 H       1  UNL1        0.1565
      7 C         141.0113  139.7835  165.8236 C.ar    1  UNL1        0.0647
      8 C         139.9787  138.8303  165.2992 C.ar    1  UNL1        0.0844
      9 C         138.7612  138.5184  166.1180 C.ar    1  UNL1        0.1147
     10 N         138.5764  139.1598  167.4614 N.ar    1  UNL1       -0.2425
     11 C         139.6091  140.1130  167.9858 C.ar    1  UNL1        0.0827
     12 C         139.4243  140.7543  169.3291 C.ar    1  UNL1        0.0214
     13 C         140.4570  141.7075  169.8536 C.ar    1  UNL1        0.0312
     14 C         141.6744  142.0193  169.0347 C.ar    1  UNL1        0.1403
     15 F         142.7071  142.9725  169.5592 F       1  UNL1       -0.2042
     16 C         141.8592  141.3780  167.6914 C.ar    1  UNL1        0.0324
     17 C         140.8266  140.4248  167.1669 C.ar    1  UNL1        0.0345
     18 C         143.5369  138.2172  166.2342 C.3     1  UNL1        0.0241
     19 C         143.4915  139.3122  165.2100 C.3     1  UNL1        0.1025
     20 C         144.7089  139.6240  164.3911 C.3     1  UNL1        0.1618
     21 O         144.6636  140.7190  163.3669 O.3     1  UNL1       -0.3502
     22 C         143.4009  141.5021  163.1616 C.3     1  UNL1        0.1636
     23 C         142.1835  141.1903  163.9805 C.3     1  UNL1        0.1231
     24 N         142.2288  140.0953  165.0047 N.pl3   1  UNL1       -0.3033
     25 C         139.3266  138.9139  160.1448 C.ar    1  UNL1        0.0720
     26 C         137.9842  139.5828  160.1591 C.ar    1  UNL1        0.1167
     27 N         137.4733  140.2660  158.9253 N.ar    1  UNL1       -0.2081
     28 C         138.3050  140.2802  157.6770 C.ar    1  UNL1        0.2356
     29 C         139.6475  139.6113  157.6627 C.ar    1  UNL1        0.1119
     30 CL        140.4792  139.6255  156.4144 Cl      1  UNL1       -0.0773
     31 C         140.1583  138.9281  158.8965 C.ar    1  UNL1        0.0324
     32 O         137.7942  140.9633  156.4432 O.3     1  UNL1       -0.4633
     33 C         138.0758  142.4198  156.2212 C.3     1  UNL1        0.1704
     34 C         139.2316  143.0749  156.9177 C.3     1  UNL1        0.0609
     35 C         139.5132  144.5314  156.6957 C.3     1  UNL1        0.0758
     36 N         138.6391  145.3328  155.7772 N.3     1  UNL1       -0.2713
     37 C         138.9208  146.7894  155.5553 C.3     1  UNL1        0.0896
     38 C         137.4833  144.6778  155.0808 C.3     1  UNL1        0.0758
     39 C         137.2017  143.2212  155.3027 C.3     1  UNL1        0.0609
@<TRIPOS>BOND
     1    19    18    1
     2    19    20    1
     3    20    21    1
     4    21    22    1
     5    22    23    1
     6    23    24    1
     7    24     7    1
     8     7     8   ar
     9     8     1    1
    10     1     2   am
    11     2     3    2
    12     2     4   am
    13     4    25    1
    14    25    26   ar
    15    26    27   ar
    16    27    28   ar
    17    28    32    1
    18    32    33    1
    19    33    34    1
    20    34    35    1
    21    35    36    1
    22    36    37    1
    23    36    38    1
    24    38    39    1
    25    28    29   ar
    26    29    30    1
    27    29    31   ar
    28     8     9   ar
    29     9    10   ar
    30    10    11   ar
    31    11    12   ar
    32    12    13   ar
    33    13    14   ar
    34    14    15    1
    35    14    16   ar
    36    16    17   ar
    37    24    19    1
    38    17     7   ar
    39    31    25   ar
    40    17    11   ar
    41    39    33    1
    42     1     5    1
    43     4     6    1
@<TRIPOS>MOLECULE
*****
 39 43 0 0 0
SMALL
GASTEIGER

@<TRIPOS>ATOM
      1 N         142.2921  143.5746  162.9675 N.am    1  UNL1       -0.2658
      2 C         142.5091  142.6891  161.7764 C.2     1  UNL1        0.3083
      3 O         142.7391  141.2191  161.9667 O.2     1  UNL1       -0.2521
      4 N         142.4961  143.2736  160.3950 N.am    1  UNL1       -0.2667
      5 H         142.1411  144.5395  162.8426 H       1  UNL1        0.1565
      6 H         142.3451  144.2384  160.2701 H       1  UNL1        0.1565
      7 C         141.0699  142.3423  164.9008 C.ar    1  UNL1        0.0647
      8 C         142.3051  142.9901  164.3489 C.ar    1  UNL1        0.0844
      9 C         143.5533  143.0534  165.1783 C.ar    1  UNL1        0.1147
     10 N         143.5663  142.4689  166.5598 N.ar    1  UNL1       -0.2425
     11 C         142.3311  141.8211  167.1117 C.ar    1  UNL1        0.0827
     12 C         142.3440  141.2366  168.4930 C.ar    1  UNL1        0.0214
     13 C         141.1088  140.5887  169.0449 C.ar    1  UNL1        0.0312
     14 C         139.8607  140.5254  168.2155 C.ar    1  UNL1        0.1403
     15 F         138.6254  139.8776  168.7674 F       1  UNL1       -0.2042
     16 C         139.8476  141.1100  166.8341 C.ar    1  UNL1        0.0324
     17 C         141.0828  141.7578  166.2822 C.ar    1  UNL1        0.0345
     18 C         139.1567  144.6531  164.8908 C.3     1  UNL1        0.0241
     19 C         138.8651  143.4344  164.0663 C.3     1  UNL1        0.1025
     20 C         137.6169  143.3710  163.2368 C.3     1  UNL1        0.1618
     21 O         137.3254  142.1523  162.4123 O.3     1  UNL1       -0.3502
     22 C         138.2819  140.9970  162.4173 C.3     1  UNL1        0.1636
     23 C         139.5301  141.0603  163.2468 C.3     1  UNL1        0.1231
     24 N         139.8216  142.2790  164.0713 N.pl3   1  UNL1       -0.3033
     25 C         142.7131  142.3881  159.2039 C.ar    1  UNL1        0.0720
     26 C         144.0303  141.6963  159.0137 C.ar    1  UNL1        0.1167
     27 N         144.2474  140.8108  157.8225 N.ar    1  UNL1       -0.2081
     28 C         143.1471  140.6170  156.8217 C.ar    1  UNL1        0.2356
     29 C         141.8298  141.3088  157.0119 C.ar    1  UNL1        0.1119
     30 CL        140.7295  141.1150  156.0110 Cl      1  UNL1       -0.0773
     31 C         141.6128  142.1943  158.2030 C.ar    1  UNL1        0.0324
     32 O         143.3641  139.7315  155.6305 O.3     1  UNL1       -0.4633
     33 C         143.1407  138.2527  155.7448 C.3     1  UNL1        0.1704
     34 C         141.8024  137.7271  156.1725 C.3     1  UNL1        0.0609
     35 C         141.5790  136.2483  156.2867 C.3     1  UNL1        0.0758
     36 N         142.6939  135.2950  155.9732 N.3     1  UNL1       -0.2713
     37 C         142.4704  133.8160  156.0874 C.3     1  UNL1        0.0896
     38 C         144.0321  135.8204  155.5455 C.3     1  UNL1        0.0758
     39 C         144.2555  137.2993  155.4313 C.3     1  UNL1        0.0609
@<TRIPOS>BOND
     1    19    18    1
     2    19    20    1
     3    20    21    1
     4    21    22    1
     5    22    23    1
     6    23    24    1
     7    24     7    1
     8     7     8   ar
     9     8     1    1
    10     1     2   am
    11     2     3    2
    12     2     4   am
    13     4    25    1
    14    25    26   ar
    15    26    27   ar
    16    27    28   ar
    17    28    32    1
    18    32    33    1
    19    33    34    1
    20    34    35    1
    21    35    36    1
    22    36    37    1
    23    36    38    1
    24    38    39    1
    25    28    29   ar
    26    29    30    1
    27    29    31   ar
    28     8     9   ar
    29     9    10   ar
    30    10    11   ar
    31    11    12   ar
    32    12    13   ar
    33    13    14   ar
    34    14    15    1
    35    14    16   ar
    36    16    17   ar
    37    24    19    1
    38    17     7   ar
    39    31    25   ar
    40    17    11   ar
    41    39    33    1
    42     1     5    1
    43     4     6    1
