@<TRIPOS>MOLECULE
*****
 35 38 0 0 0
SMALL
GASTEIGER

@<TRIPOS>ATOM
      1 N         140.5737  144.6441  162.5025 N.am    1  UNL1       -0.2657
      2 C         140.2188  145.5052  161.3267 C.2     1  UNL1        0.2493
      3 O         139.2256  146.6293  161.3249 O.2     1  UNL1       -0.2699
      4 C         141.0315  145.0449  160.1529 C.ar    1  UNL1        0.0516
      5 C         141.1018  145.5210  158.7323 C.ar    1  UNL1        0.0043
      6 C         142.0292  144.8514  157.7620 C.ar    1  UNL1        0.0001
      7 C         142.8864  143.7058  158.2124 C.ar    1  UNL1       -0.0003
      8 C         142.8161  143.2298  159.6330 C.ar    1  UNL1       -0.0021
      9 C         141.8887  143.8993  160.6033 C.ar    1  UNL1        0.0089
     10 C         141.6057  143.6516  162.0554 C.3     1  UNL1        0.1751
     11 C         142.2430  142.5966  162.9104 C.2     1  UNL1        0.2451
     12 O         141.7710  141.1755  162.8243 O.2     1  UNL1       -0.2729
     13 N         143.3523  142.9628  163.8514 N.am    1  UNL1       -0.2988
     14 H         143.6621  143.8956  163.9079 H       1  UNL1        0.1498
     15 C         143.9895  141.9078  164.7063 C.3     1  UNL1        0.1164
     16 C         143.2786  141.4003  165.9257 C.ar    1  UNL1       -0.0024
     17 C         142.8714  142.3554  167.0083 C.ar    1  UNL1        0.0005
     18 C         142.1604  141.8479  168.2278 C.ar    1  UNL1        0.0369
     19 C         141.8566  140.3854  168.3647 C.ar    1  UNL1        0.1468
     20 C         142.2638  139.4304  167.2820 C.ar    1  UNL1        0.0369
     21 C         142.9748  139.9378  166.0625 C.ar    1  UNL1        0.0005
     22 O         141.1457  139.8779  169.5840 O.3     1  UNL1       -0.4045
     23 C         139.8092  140.4440  169.9629 C.3     1  UNL1        0.5753
     24 F         138.4728  141.0100  170.3418 F       1  UNL1       -0.1328
     25 F         140.3765  140.9072  171.2720 F       1  UNL1       -0.1328
     26 F         139.2419  139.9808  168.6538 F       1  UNL1       -0.1328
     27 C         139.9977  144.7558  163.8830 C.3     1  UNL1        0.1007
     28 C         138.7483  144.0051  164.2374 C.3     1  UNL1        0.0673
     29 C         137.7258  139.5103  161.8393 C.3     1  UNL1        0.0521
     30 C         138.2370  140.2577  163.0351 C.ar    1  UNL1        0.0590
     31 C         138.7481  139.5051  164.2277 C.ar    1  UNL1        0.0147
     32 C         139.2593  140.2526  165.4236 C.ar    1  UNL1        0.0024
     33 C         139.2594  141.7526  165.4268 C.ar    1  UNL1        0.0148
     34 C         138.7483  142.5051  164.2342 C.ar    1  UNL1        0.0603
     35 N         138.2370  141.7577  163.0384 N.ar    1  UNL1       -0.2539
@<TRIPOS>BOND
     1    29    30    1
     2    30    31   ar
     3    31    32   ar
     4    32    33   ar
     5    33    34   ar
     6    34    28    1
     7    28    27    1
     8    27     1    1
     9     1     2   am
    10     2     3    2
    11     2     4    1
    12     4     5   ar
    13     5     6   ar
    14     6     7   ar
    15     7     8   ar
    16     8     9   ar
    17     9    10    1
    18    10    11    1
    19    11    12    2
    20    11    13   am
    21    13    15    1
    22    15    16    1
    23    16    17   ar
    24    17    18   ar
    25    18    19   ar
    26    19    22    1
    27    22    23    1
    28    23    24    1
    29    23    25    1
    30    23    26    1
    31    19    20   ar
    32    20    21   ar
    33    34    35   ar
    34    35    30   ar
    35    10     1    1
    36    21    16   ar
    37     9     4   ar
    38    13    14    1
@<TRIPOS>MOLECULE
*****
 35 38 0 0 0
SMALL
GASTEIGER

@<TRIPOS>ATOM
      1 N         141.1035  144.8732  162.3041 N.am    1  UNL1       -0.2657
      2 C         140.3219  145.5841  161.2393 C.2     1  UNL1        0.2493
      3 O         139.2142  146.5693  161.4681 O.2     1  UNL1       -0.2699
      4 C         140.8426  145.1369  159.9055 C.ar    1  UNL1        0.0516
      5 C         140.4546  145.5012  158.5032 C.ar    1  UNL1        0.0043
      6 C         141.1699  144.8781  157.3413 C.ar    1  UNL1        0.0001
      7 C         142.2732  143.8908  157.5817 C.ar    1  UNL1       -0.0003
      8 C         142.6613  143.5265  158.9841 C.ar    1  UNL1       -0.0021
      9 C         141.9459  144.1496  160.1460 C.ar    1  UNL1        0.0089
     10 C         142.1072  143.9866  161.6284 C.3     1  UNL1        0.1751
     11 C         143.0981  143.0938  162.3146 C.2     1  UNL1        0.2451
     12 O         144.4775  143.5984  162.6187 O.2     1  UNL1       -0.2729
     13 N         142.7096  141.6961  162.6966 N.am    1  UNL1       -0.2988
     14 H         141.8043  141.3649  162.4970 H       1  UNL1        0.1498
     15 C         143.7006  140.8033  163.3828 C.3     1  UNL1        0.1164
     16 C         143.4505  140.3470  164.7896 C.ar    1  UNL1       -0.0024
     17 C         143.6643  138.9095  165.1610 C.ar    1  UNL1        0.0005
     18 C         143.4142  138.4531  166.5679 C.ar    1  UNL1        0.0369
     19 C         142.9503  139.4343  167.6034 C.ar    1  UNL1        0.1468
     20 C         142.7364  140.8718  167.2319 C.ar    1  UNL1        0.0369
     21 C         142.9865  141.3281  165.8251 C.ar    1  UNL1        0.0005
     22 O         142.7001  138.9780  169.0102 O.3     1  UNL1       -0.4045
     23 C         142.0207  139.8928  169.9857 C.3     1  UNL1        0.5753
     24 F         141.3414  140.8076  170.9612 F       1  UNL1       -0.1328
     25 F         143.3548  140.2800  170.5516 F       1  UNL1       -0.1328
     26 F         140.6867  139.5055  169.4197 F       1  UNL1       -0.1328
     27 C         140.9145  145.0226  163.7846 C.3     1  UNL1        0.1007
     28 C         139.5914  144.6916  164.4090 C.3     1  UNL1        0.0673
     29 C         139.4713  139.7342  165.9611 C.3     1  UNL1        0.0521
     30 C         138.9706  140.8269  165.0639 C.ar    1  UNL1        0.0590
     31 C         137.9091  140.5337  164.0454 C.ar    1  UNL1        0.0147
     32 C         137.4084  141.6265  163.1481 C.ar    1  UNL1        0.0024
     33 C         137.9692  143.0125  163.2693 C.ar    1  UNL1        0.0148
     34 C         139.0307  143.3056  164.2878 C.ar    1  UNL1        0.0603
     35 N         139.5314  142.2129  165.1851 N.ar    1  UNL1       -0.2539
@<TRIPOS>BOND
     1    29    30    1
     2    30    31   ar
     3    31    32   ar
     4    32    33   ar
     5    33    34   ar
     6    34    28    1
     7    28    27    1
     8    27     1    1
     9     1     2   am
    10     2     3    2
    11     2     4    1
    12     4     5   ar
    13     5     6   ar
    14     6     7   ar
    15     7     8   ar
    16     8     9   ar
    17     9    10    1
    18    10    11    1
    19    11    12    2
    20    11    13   am
    21    13    15    1
    22    15    16    1
    23    16    17   ar
    24    17    18   ar
    25    18    19   ar
    26    19    22    1
    27    22    23    1
    28    23    24    1
    29    23    25    1
    30    23    26    1
    31    19    20   ar
    32    20    21   ar
    33    34    35   ar
    34    35    30   ar
    35    10     1    1
    36    21    16   ar
    37     9     4   ar
    38    13    14    1
@<TRIPOS>MOLECULE
*****
 35 38 0 0 0
SMALL
GASTEIGER

@<TRIPOS>ATOM
      1 N         140.6584  144.3986  160.9681 N.am    1  UNL1       -0.2657
      2 C         140.9839  144.6873  159.5326 C.2     1  UNL1        0.2493
      3 O         142.0592  145.6103  159.0408 O.2     1  UNL1       -0.2699
      4 C         140.0454  143.8911  158.6752 C.ar    1  UNL1        0.0516
      5 C         139.8983  143.7762  157.1869 C.ar    1  UNL1        0.0043
      6 C         138.8457  142.8805  156.6042 C.ar    1  UNL1        0.0001
      7 C         137.9401  142.0996  157.5098 C.ar    1  UNL1       -0.0003
      8 C         138.0872  142.2144  158.9981 C.ar    1  UNL1       -0.0021
      9 C         139.1398  143.1102  159.5808 C.ar    1  UNL1        0.0089
     10 C         139.5187  143.4238  160.9979 C.3     1  UNL1        0.1751
     11 C         138.8714  142.8615  162.2287 C.2     1  UNL1        0.2451
     12 O         137.7242  143.5844  162.8698 O.2     1  UNL1       -0.2729
     13 N         139.3715  141.5760  162.8184 N.am    1  UNL1       -0.2988
     14 H         140.1245  141.1014  162.3976 H       1  UNL1        0.1498
     15 C         138.7242  141.0136  164.0491 C.3     1  UNL1        0.1164
     16 C         139.3666  141.2093  165.3904 C.ar    1  UNL1       -0.0024
     17 C         139.5206  140.0463  166.3250 C.ar    1  UNL1        0.0005
     18 C         140.1631  140.2420  167.6664 C.ar    1  UNL1        0.0369
     19 C         140.6515  141.6007  168.0730 C.ar    1  UNL1        0.1468
     20 C         140.4975  142.7637  167.1382 C.ar    1  UNL1        0.0369
     21 C         139.8551  142.5681  165.7969 C.ar    1  UNL1        0.0005
     22 O         141.2939  141.7964  169.4142 O.3     1  UNL1       -0.4045
     23 C         142.7350  142.2030  169.5033 C.3     1  UNL1        0.5753
     24 F         144.1762  142.6095  169.5924 F       1  UNL1       -0.1328
     25 F         143.1420  140.8935  168.8952 F       1  UNL1       -0.1328
     26 F         142.3281  143.5124  170.1113 F       1  UNL1       -0.1328
     27 C         141.3511  144.9820  162.1639 C.3     1  UNL1        0.1007
     28 C         142.7402  144.5392  162.5162 C.3     1  UNL1        0.0673
     29 C         142.2582  139.5105  163.7325 C.3     1  UNL1        0.0521
     30 C         142.7041  140.8969  164.0917 C.ar    1  UNL1        0.0590
     31 C         143.3549  141.1553  165.4182 C.ar    1  UNL1        0.0147
     32 C         143.8008  142.5418  165.7774 C.ar    1  UNL1        0.0024
     33 C         143.5959  143.6697  164.8101 C.ar    1  UNL1        0.0148
     34 C         142.9451  143.4112  163.4835 C.ar    1  UNL1        0.0603
     35 N         142.4992  142.0248  163.1244 N.ar    1  UNL1       -0.2539
@<TRIPOS>BOND
     1    29    30    1
     2    30    31   ar
     3    31    32   ar
     4    32    33   ar
     5    33    34   ar
     6    34    28    1
     7    28    27    1
     8    27     1    1
     9     1     2   am
    10     2     3    2
    11     2     4    1
    12     4     5   ar
    13     5     6   ar
    14     6     7   ar
    15     7     8   ar
    16     8     9   ar
    17     9    10    1
    18    10    11    1
    19    11    12    2
    20    11    13   am
    21    13    15    1
    22    15    16    1
    23    16    17   ar
    24    17    18   ar
    25    18    19   ar
    26    19    22    1
    27    22    23    1
    28    23    24    1
    29    23    25    1
    30    23    26    1
    31    19    20   ar
    32    20    21   ar
    33    34    35   ar
    34    35    30   ar
    35    10     1    1
    36    21    16   ar
    37     9     4   ar
    38    13    14    1
@<TRIPOS>MOLECULE
*****
 35 38 0 0 0
SMALL
GASTEIGER

@<TRIPOS>ATOM
      1 N         139.0673  139.2059  161.2444 N.am    1  UNL1       -0.2657
      2 C         138.7598  139.4674  159.7998 C.2     1  UNL1        0.2493
      3 O         137.4800  140.0329  159.2591 O.2     1  UNL1       -0.2699
      4 C         139.9568  139.0642  158.9906 C.ar    1  UNL1        0.0516
      5 C         140.2284  139.0962  157.5158 C.ar    1  UNL1        0.0043
      6 C         141.5473  138.6173  156.9856 C.ar    1  UNL1        0.0001
      7 C         142.5946  138.1066  157.9302 C.ar    1  UNL1       -0.0003
      8 C         142.3230  138.0746  159.4050 C.ar    1  UNL1       -0.0021
      9 C         141.0041  138.5534  159.9352 C.ar    1  UNL1        0.0089
     10 C         140.4544  138.6410  161.3281 C.3     1  UNL1        0.1751
     11 C         141.1667  138.2349  162.5842 C.2     1  UNL1        0.2451
     12 O         141.0456  136.8296  163.0943 O.2     1  UNL1       -0.2729
     13 N         142.0002  139.2344  163.3303 N.am    1  UNL1       -0.2988
     14 H         142.0797  140.1568  162.9956 H       1  UNL1        0.1498
     15 C         142.7125  138.8283  164.5864 C.3     1  UNL1        0.1164
     16 C         142.1370  139.1871  165.9243 C.ar    1  UNL1       -0.0024
     17 C         140.7017  139.6091  166.0345 C.ar    1  UNL1        0.0005
     18 C         140.1261  139.9679  167.3725 C.ar    1  UNL1        0.0369
     19 C         140.9857  139.9048  168.6001 C.ar    1  UNL1        0.1468
     20 C         142.4210  139.4829  168.4898 C.ar    1  UNL1        0.0369
     21 C         142.9966  139.1240  167.1519 C.ar    1  UNL1        0.0005
     22 O         140.4102  140.2636  169.9380 O.3     1  UNL1       -0.4045
     23 C         139.9100  141.6551  170.1904 C.3     1  UNL1        0.5753
     24 F         139.4099  143.0465  170.4429 F       1  UNL1       -0.1328
     25 F         138.4988  141.1467  170.1963 F       1  UNL1       -0.1328
     26 F         141.3213  142.1634  170.1845 F       1  UNL1       -0.1328
     27 C         138.1490  139.4639  162.4021 C.3     1  UNL1        0.1007
     28 C         137.6338  140.8494  162.6564 C.3     1  UNL1        0.0673
     29 C         142.2962  142.6723  164.0491 C.3     1  UNL1        0.0521
     30 C         140.7996  142.7420  164.1215 C.ar    1  UNL1        0.0590
     31 C         140.1375  143.7928  164.9625 C.ar    1  UNL1        0.0147
     32 C         138.6409  143.8626  165.0349 C.ar    1  UNL1        0.0024
     33 C         137.8063  142.8815  164.2662 C.ar    1  UNL1        0.0148
     34 C         138.4684  141.8306  163.4251 C.ar    1  UNL1        0.0603
     35 N         139.9650  141.7609  163.3528 N.ar    1  UNL1       -0.2539
@<TRIPOS>BOND
     1    29    30    1
     2    30    31   ar
     3    31    32   ar
     4    32    33   ar
     5    33    34   ar
     6    34    28    1
     7    28    27    1
     8    27     1    1
     9     1     2   am
    10     2     3    2
    11     2     4    1
    12     4     5   ar
    13     5     6   ar
    14     6     7   ar
    15     7     8   ar
    16     8     9   ar
    17     9    10    1
    18    10    11    1
    19    11    12    2
    20    11    13   am
    21    13    15    1
    22    15    16    1
    23    16    17   ar
    24    17    18   ar
    25    18    19   ar
    26    19    22    1
    27    22    23    1
    28    23    24    1
    29    23    25    1
    30    23    26    1
    31    19    20   ar
    32    20    21   ar
    33    34    35   ar
    34    35    30   ar
    35    10     1    1
    36    21    16   ar
    37     9     4   ar
    38    13    14    1
@<TRIPOS>MOLECULE
*****
 35 38 0 0 0
SMALL
GASTEIGER

@<TRIPOS>ATOM
      1 N         142.6964  139.1258  165.6037 N.am    1  UNL1       -0.2657
      2 C         143.2649  138.6082  166.8917 C.2     1  UNL1        0.2493
      3 O         144.4412  137.6877  167.0294 O.2     1  UNL1       -0.2699
      4 C         142.4506  139.1727  168.0179 C.ar    1  UNL1        0.0516
      5 C         142.5466  139.0097  169.5059 C.ar    1  UNL1        0.0043
      6 C         141.5708  139.7132  170.4019 C.ar    1  UNL1        0.0001
      7 C         140.4991  140.5797  169.8099 C.ar    1  UNL1       -0.0003
      8 C         140.4031  140.7428  168.3220 C.ar    1  UNL1       -0.0021
      9 C         141.3789  140.0393  167.4259 C.ar    1  UNL1        0.0089
     10 C         141.5308  140.0103  165.9339 C.3     1  UNL1        0.1751
     11 C         140.6684  140.7380  164.9456 C.2     1  UNL1        0.2451
     12 O         139.7338  139.9710  164.0579 O.2     1  UNL1       -0.2729
     13 N         140.7407  142.2330  164.8450 N.am    1  UNL1       -0.2988
     14 H         141.3541  142.7365  165.4276 H       1  UNL1        0.1498
     15 C         139.8783  142.9607  163.8566 C.3     1  UNL1        0.1164
     16 C         140.4505  143.3972  162.5406 C.ar    1  UNL1       -0.0024
     17 C         140.6293  144.8574  162.2479 C.ar    1  UNL1        0.0005
     18 C         141.2015  145.2940  160.9318 C.ar    1  UNL1        0.0369
     19 C         141.5949  144.2703  159.9085 C.ar    1  UNL1        0.1468
     20 C         141.4161  142.8101  160.2012 C.ar    1  UNL1        0.0369
     21 C         140.8439  142.3735  161.5172 C.ar    1  UNL1        0.0005
     22 O         142.1671  144.7068  158.5924 O.3     1  UNL1       -0.4045
     23 C         141.3912  145.6385  157.7093 C.3     1  UNL1        0.5753
     24 F         140.6152  146.5702  156.8262 F       1  UNL1       -0.1328
     25 F         142.6122  146.4927  157.5376 F       1  UNL1       -0.1328
     26 F         140.1702  144.7843  157.8810 F       1  UNL1       -0.1328
     27 C         143.2044  138.8138  164.2273 C.3     1  UNL1        0.1007
     28 C         144.4653  139.4559  163.7297 C.3     1  UNL1        0.0673
     29 C         143.6758  144.5189  164.5913 C.3     1  UNL1        0.0521
     30 C         144.0455  143.4017  163.6613 C.ar    1  UNL1        0.0590
     31 C         144.3902  143.6987  162.2320 C.ar    1  UNL1        0.0147
     32 C         144.7600  142.5814  161.3019 C.ar    1  UNL1        0.0024
     33 C         144.7850  141.1672  161.8011 C.ar    1  UNL1        0.0148
     34 C         144.4403  140.8702  163.2305 C.ar    1  UNL1        0.0603
     35 N         144.0705  141.9874  164.1605 N.ar    1  UNL1       -0.2539
@<TRIPOS>BOND
     1    29    30    1
     2    30    31   ar
     3    31    32   ar
     4    32    33   ar
     5    33    34   ar
     6    34    28    1
     7    28    27    1
     8    27     1    1
     9     1     2   am
    10     2     3    2
    11     2     4    1
    12     4     5   ar
    13     5     6   ar
    14     6     7   ar
    15     7     8   ar
    16     8     9   ar
    17     9    10    1
    18    10    11    1
    19    11    12    2
    20    11    13   am
    21    13    15    1
    22    15    16    1
    23    16    17   ar
    24    17    18   ar
    25    18    19   ar
    26    19    22    1
    27    22    23    1
    28    23    24    1
    29    23    25    1
    30    23    26    1
    31    19    20   ar
    32    20    21   ar
    33    34    35   ar
    34    35    30   ar
    35    10     1    1
    36    21    16   ar
    37     9     4   ar
    38    13    14    1
@<TRIPOS>MOLECULE
*****
 35 38 0 0 0
SMALL
GASTEIGER

@<TRIPOS>ATOM
      1 N         140.1798  139.9856  167.0464 N.am    1  UNL1       -0.2657
      2 C         139.7864  140.1323  168.4865 C.2     1  UNL1        0.2493
      3 O         138.5645  139.5474  169.1306 O.2     1  UNL1       -0.2699
      4 C         140.8295  140.9664  169.1693 C.ar    1  UNL1        0.0516
      5 C         140.9682  141.4377  170.5866 C.ar    1  UNL1        0.0043
      6 C         142.1449  142.2778  170.9858 C.ar    1  UNL1        0.0001
      7 C         143.1829  142.6467  169.9677 C.ar    1  UNL1       -0.0003
      8 C         143.0442  142.1755  168.5505 C.ar    1  UNL1       -0.0021
      9 C         141.8675  141.3353  168.1513 C.ar    1  UNL1        0.0089
     10 C         141.4659  140.7291  166.8393 C.3     1  UNL1        0.1751
     11 C         142.2185  140.8460  165.5470 C.2     1  UNL1        0.2451
     12 O         143.5864  140.2442  165.4185 O.2     1  UNL1       -0.2729
     13 N         141.6031  141.5648  164.3830 N.am    1  UNL1       -0.2988
     14 H         140.7052  141.9598  164.4673 H       1  UNL1        0.1498
     15 C         142.3556  141.6817  163.0907 C.3     1  UNL1        0.1164
     16 C         141.7517  142.4241  161.9357 C.ar    1  UNL1       -0.0024
     17 C         141.1368  141.6666  160.7964 C.ar    1  UNL1        0.0005
     18 C         140.5328  142.4090  159.6413 C.ar    1  UNL1        0.0369
     19 C         140.5438  143.9089  159.6256 C.ar    1  UNL1        0.1468
     20 C         141.1587  144.6663  160.7650 C.ar    1  UNL1        0.0369
     21 C         141.7626  143.9240  161.9201 C.ar    1  UNL1        0.0005
     22 O         139.9398  144.6513  158.4706 O.3     1  UNL1       -0.4045
     23 C         140.7927  145.5579  157.6335 C.3     1  UNL1        0.5753
     24 F         141.6456  146.4644  156.7963 F       1  UNL1       -0.1328
     25 F         141.8187  144.4715  157.5024 F       1  UNL1       -0.1328
     26 F         139.7667  146.6442  157.7646 F       1  UNL1       -0.1328
     27 C         139.4203  139.2284  165.9977 C.3     1  UNL1        0.1007
     28 C         138.1296  139.7759  165.4644 C.3     1  UNL1        0.0673
     29 C         139.0789  144.8083  164.5850 C.3     1  UNL1        0.0521
     30 C         138.6160  143.4686  164.0943 C.ar    1  UNL1        0.0590
     31 C         138.1650  143.3053  162.6730 C.ar    1  UNL1        0.0147
     32 C         137.7022  141.9655  162.1822 C.ar    1  UNL1        0.0024
     33 C         137.6904  140.7891  163.1127 C.ar    1  UNL1        0.0148
     34 C         138.1414  140.9523  164.5339 C.ar    1  UNL1        0.0603
     35 N         138.6042  142.2921  165.0247 N.ar    1  UNL1       -0.2539
@<TRIPOS>BOND
     1    29    30    1
     2    30    31   ar
     3    31    32   ar
     4    32    33   ar
     5    33    34   ar
     6    34    28    1
     7    28    27    1
     8    27     1    1
     9     1     2   am
    10     2     3    2
    11     2     4    1
    12     4     5   ar
    13     5     6   ar
    14     6     7   ar
    15     7     8   ar
    16     8     9   ar
    17     9    10    1
    18    10    11    1
    19    11    12    2
    20    11    13   am
    21    13    15    1
    22    15    16    1
    23    16    17   ar
    24    17    18   ar
    25    18    19   ar
    26    19    22    1
    27    22    23    1
    28    23    24    1
    29    23    25    1
    30    23    26    1
    31    19    20   ar
    32    20    21   ar
    33    34    35   ar
    34    35    30   ar
    35    10     1    1
    36    21    16   ar
    37     9     4   ar
    38    13    14    1
@<TRIPOS>MOLECULE
*****
 35 38 0 0 0
SMALL
GASTEIGER

@<TRIPOS>ATOM
      1 N         143.6449  142.9394  160.7046 N.am    1  UNL1       -0.2657
      2 C         143.8053  142.9214  159.2133 C.2     1  UNL1        0.2493
      3 O         144.8851  142.2122  158.4511 O.2     1  UNL1       -0.2699
      4 C         142.6962  143.7372  158.6179 C.ar    1  UNL1        0.0516
      5 C         142.3472  144.0720  157.1980 C.ar    1  UNL1        0.0043
      6 C         141.1524  144.9290  156.9015 C.ar    1  UNL1        0.0001
      7 C         140.3066  145.4512  158.0249 C.ar    1  UNL1       -0.0003
      8 C         140.6556  145.1164  159.4447 C.ar    1  UNL1       -0.0021
      9 C         141.8504  144.2594  159.7413 C.ar    1  UNL1        0.0089
     10 C         142.4368  143.7664  161.0309 C.3     1  UNL1        0.1751
     11 C         141.9078  144.0504  162.4055 C.2     1  UNL1        0.2451
     12 O         142.3529  145.2792  163.1413 O.2     1  UNL1       -0.2729
     13 N         140.9335  143.1054  163.0442 N.am    1  UNL1       -0.2988
     14 H         140.6413  142.2988  162.5613 H       1  UNL1        0.1498
     15 C         140.4045  143.3894  164.4188 C.3     1  UNL1        0.1164
     16 C         141.0741  142.7885  165.6190 C.ar    1  UNL1       -0.0024
     17 C         140.2465  142.2086  166.7276 C.ar    1  UNL1        0.0005
     18 C         140.9161  141.6077  167.9279 C.ar    1  UNL1        0.0369
     19 C         142.4132  141.5866  168.0195 C.ar    1  UNL1        0.1468
     20 C         143.2406  142.1665  166.9109 C.ar    1  UNL1        0.0369
     21 C         142.5711  142.7674  165.7106 C.ar    1  UNL1        0.0005
     22 O         143.0828  140.9856  169.2197 O.3     1  UNL1       -0.4045
     23 C         142.5752  139.6965  169.7947 C.3     1  UNL1        0.5753
     24 F         142.0676  138.4074  170.3697 F       1  UNL1       -0.1328
     25 F         142.2036  140.4080  171.0618 F       1  UNL1       -0.1328
     26 F         142.9468  138.9850  168.5275 F       1  UNL1       -0.1328
     27 C         144.5363  142.2513  161.6956 C.3     1  UNL1        0.1007
     28 C         144.4768  140.7604  161.8491 C.3     1  UNL1        0.0673
     29 C         139.9354  139.5869  164.0847 C.3     1  UNL1        0.0521
     30 C         141.4351  139.5667  164.1014 C.ar    1  UNL1        0.0590
     31 C         142.1639  138.9395  165.2527 C.ar    1  UNL1        0.0147
     32 C         143.6637  138.9193  165.2695 C.ar    1  UNL1        0.0024
     33 C         144.4347  139.5262  164.1349 C.ar    1  UNL1        0.0148
     34 C         143.7058  140.1535  162.9836 C.ar    1  UNL1        0.0603
     35 N         142.2061  140.1737  162.9669 N.ar    1  UNL1       -0.2539
@<TRIPOS>BOND
     1    29    30    1
     2    30    31   ar
     3    31    32   ar
     4    32    33   ar
     5    33    34   ar
     6    34    28    1
     7    28    27    1
     8    27     1    1
     9     1     2   am
    10     2     3    2
    11     2     4    1
    12     4     5   ar
    13     5     6   ar
    14     6     7   ar
    15     7     8   ar
    16     8     9   ar
    17     9    10    1
    18    10    11    1
    19    11    12    2
    20    11    13   am
    21    13    15    1
    22    15    16    1
    23    16    17   ar
    24    17    18   ar
    25    18    19   ar
    26    19    22    1
    27    22    23    1
    28    23    24    1
    29    23    25    1
    30    23    26    1
    31    19    20   ar
    32    20    21   ar
    33    34    35   ar
    34    35    30   ar
    35    10     1    1
    36    21    16   ar
    37     9     4   ar
    38    13    14    1
@<TRIPOS>MOLECULE
*****
 35 38 0 0 0
SMALL
GASTEIGER

@<TRIPOS>ATOM
      1 N         142.8686  143.4864  160.7501 N.am    1  UNL1       -0.2657
      2 C         142.5327  143.8537  159.3351 C.2     1  UNL1        0.2493
      3 O         141.8954  145.1346  158.8842 O.2     1  UNL1       -0.2699
      4 C         142.9459  142.7153  158.4501 C.ar    1  UNL1        0.0516
      5 C         142.8600  142.5154  156.9659 C.ar    1  UNL1        0.0043
      6 C         143.3655  141.2447  156.3499 C.ar    1  UNL1        0.0001
      7 C         143.9569  140.1738  157.2179 C.ar    1  UNL1       -0.0003
      8 C         144.0427  140.3736  158.7020 C.ar    1  UNL1       -0.0021
      9 C         143.5372  141.6444  159.3181 C.ar    1  UNL1        0.0089
     10 C         143.4894  142.1210  160.7396 C.3     1  UNL1        0.1751
     11 C         143.9770  141.3649  161.9398 C.2     1  UNL1        0.2451
     12 O         145.4236  141.4300  162.3306 O.2     1  UNL1       -0.2729
     13 N         143.0177  140.5435  162.7493 N.am    1  UNL1       -0.2988
     14 H         142.0681  140.5007  162.4929 H       1  UNL1        0.1498
     15 C         143.5052  139.7873  163.9496 C.3     1  UNL1        0.1164
     16 C         143.2064  140.2961  165.3286 C.ar    1  UNL1       -0.0024
     17 C         142.7026  139.3549  166.3824 C.ar    1  UNL1        0.0005
     18 C         142.4038  139.8636  167.7616 C.ar    1  UNL1        0.0369
     19 C         142.6087  141.3134  168.0869 C.ar    1  UNL1        0.1468
     20 C         143.1125  142.2546  167.0331 C.ar    1  UNL1        0.0369
     21 C         143.4113  141.7459  165.6540 C.ar    1  UNL1        0.0005
     22 O         142.3099  141.8222  169.4660 O.3     1  UNL1       -0.4045
     23 C         141.4190  143.0151  169.6486 C.3     1  UNL1        0.5753
     24 F         140.5282  144.2080  169.8311 F       1  UNL1       -0.1328
     25 F         142.5313  143.7387  170.3480 F       1  UNL1       -0.1328
     26 F         140.3068  142.2915  168.9491 F       1  UNL1       -0.1328
     27 C         142.6263  144.3355  161.9626 C.3     1  UNL1        0.1007
     28 C         141.2288  144.5415  162.4669 C.3     1  UNL1        0.0673
     29 C         139.6345  139.8374  163.9933 C.3     1  UNL1        0.0521
     30 C         139.8769  141.2872  164.2923 C.ar    1  UNL1        0.0590
     31 C         139.5647  141.8346  165.6534 C.ar    1  UNL1        0.0147
     32 C         139.8071  143.2844  165.9525 C.ar    1  UNL1        0.0024
     33 C         140.3618  144.1867  164.8903 C.ar    1  UNL1        0.0148
     34 C         140.6741  143.6392  163.5291 C.ar    1  UNL1        0.0603
     35 N         140.4316  142.1895  163.2301 N.ar    1  UNL1       -0.2539
@<TRIPOS>BOND
     1    29    30    1
     2    30    31   ar
     3    31    32   ar
     4    32    33   ar
     5    33    34   ar
     6    34    28    1
     7    28    27    1
     8    27     1    1
     9     1     2   am
    10     2     3    2
    11     2     4    1
    12     4     5   ar
    13     5     6   ar
    14     6     7   ar
    15     7     8   ar
    16     8     9   ar
    17     9    10    1
    18    10    11    1
    19    11    12    2
    20    11    13   am
    21    13    15    1
    22    15    16    1
    23    16    17   ar
    24    17    18   ar
    25    18    19   ar
    26    19    22    1
    27    22    23    1
    28    23    24    1
    29    23    25    1
    30    23    26    1
    31    19    20   ar
    32    20    21   ar
    33    34    35   ar
    34    35    30   ar
    35    10     1    1
    36    21    16   ar
    37     9     4   ar
    38    13    14    1
@<TRIPOS>MOLECULE
*****
 35 38 0 0 0
SMALL
GASTEIGER

@<TRIPOS>ATOM
      1 N         141.5812  139.9124  166.3862 N.am    1  UNL1       -0.2657
      2 C         142.4718  139.6843  167.5714 C.2     1  UNL1        0.2493
      3 O         143.3934  138.5176  167.7702 O.2     1  UNL1       -0.2699
      4 C         142.2791  140.8276  168.5230 C.ar    1  UNL1        0.0516
      5 C         142.8925  141.1383  169.8560 C.ar    1  UNL1        0.0043
      6 C         142.4962  142.3838  170.5920 C.ar    1  UNL1        0.0001
      7 C         141.4865  143.3186  169.9949 C.ar    1  UNL1       -0.0003
      8 C         140.8730  143.0079  168.6618 C.ar    1  UNL1       -0.0021
      9 C         141.2693  141.7624  167.9259 C.ar    1  UNL1        0.0089
     10 C         140.8380  141.1967  166.6053 C.3     1  UNL1        0.1751
     11 C         139.8389  141.8081  165.6683 C.2     1  UNL1        0.2451
     12 O         138.5944  141.0548  165.3030 O.2     1  UNL1       -0.2729
     13 N         140.0844  143.1731  165.0965 N.am    1  UNL1       -0.2988
     14 H         140.9012  143.6676  165.3362 H       1  UNL1        0.1498
     15 C         139.0853  143.7845  164.1595 C.3     1  UNL1        0.1164
     16 C         139.4297  143.9674  162.7111 C.ar    1  UNL1       -0.0024
     17 C         139.3113  142.8131  161.7605 C.ar    1  UNL1        0.0005
     18 C         139.6557  142.9960  160.3120 C.ar    1  UNL1        0.0369
     19 C         140.1185  144.3332  159.8142 C.ar    1  UNL1        0.1468
     20 C         140.2369  145.4874  160.7648 C.ar    1  UNL1        0.0369
     21 C         139.8925  145.3046  162.2133 C.ar    1  UNL1        0.0005
     22 O         140.4630  144.5161  158.3658 O.3     1  UNL1       -0.4045
     23 C         141.5263  145.4955  157.9657 C.3     1  UNL1        0.5753
     24 F         142.5896  146.4750  157.5657 F       1  UNL1       -0.1328
     25 F         142.5841  144.5233  158.3969 F       1  UNL1       -0.1328
     26 F         140.4685  146.4678  157.5346 F       1  UNL1       -0.1328
     27 C         141.4558  139.0139  165.1916 C.3     1  UNL1        0.1007
     28 C         141.9296  139.4823  163.8477 C.3     1  UNL1        0.0673
     29 C         143.4201  144.3857  162.9903 C.3     1  UNL1        0.0521
     30 C         143.7614  142.9637  163.3239 C.ar    1  UNL1        0.0590
     31 C         145.1894  142.5714  163.5624 C.ar    1  UNL1        0.0147
     32 C         145.5308  141.1493  163.8961 C.ar    1  UNL1        0.0024
     33 C         144.4442  140.1196  163.9912 C.ar    1  UNL1        0.0148
     34 C         143.0162  140.5120  163.7526 C.ar    1  UNL1        0.0603
     35 N         142.6748  141.9340  163.4190 N.ar    1  UNL1       -0.2539
@<TRIPOS>BOND
     1    29    30    1
     2    30    31   ar
     3    31    32   ar
     4    32    33   ar
     5    33    34   ar
     6    34    28    1
     7    28    27    1
     8    27     1    1
     9     1     2   am
    10     2     3    2
    11     2     4    1
    12     4     5   ar
    13     5     6   ar
    14     6     7   ar
    15     7     8   ar
    16     8     9   ar
    17     9    10    1
    18    10    11    1
    19    11    12    2
    20    11    13   am
    21    13    15    1
    22    15    16    1
    23    16    17   ar
    24    17    18   ar
    25    18    19   ar
    26    19    22    1
    27    22    23    1
    28    23    24    1
    29    23    25    1
    30    23    26    1
    31    19    20   ar
    32    20    21   ar
    33    34    35   ar
    34    35    30   ar
    35    10     1    1
    36    21    16   ar
    37     9     4   ar
    38    13    14    1
