@<TRIPOS>MOLECULE
*****
 26 28 0 0 0
SMALL
GASTEIGER

@<TRIPOS>ATOM
      1 C         142.3974  140.9912  166.4963 C.3     1  UNL1        0.1248
      2 C         142.7213  140.1422  165.3029 C.ar    1  UNL1       -0.0069
      3 C         141.6319  139.3839  164.6040 C.ar    1  UNL1       -0.0009
      4 C         141.9558  138.5350  163.4106 C.ar    1  UNL1        0.0293
      5 C         143.3690  138.4442  162.9160 C.ar    1  UNL1        0.1401
      6 F         143.6929  137.5953  161.7226 F       1  UNL1       -0.2042
      7 C         144.4584  139.2025  163.6148 C.ar    1  UNL1        0.0293
      8 C         144.1345  140.0515  164.8083 C.ar    1  UNL1       -0.0009
      9 C         142.7613  142.2218  165.7197 C.ar    1  UNL1       -0.0069
     10 C         141.8125  142.7700  164.6953 C.ar    1  UNL1       -0.0009
     11 C         142.1764  144.0006  163.9187 C.ar    1  UNL1        0.0293
     12 C         143.4891  144.6830  164.1664 C.ar    1  UNL1        0.1401
     13 F         143.8530  145.9136  163.3897 F       1  UNL1       -0.2042
     14 C         144.4378  144.1348  165.1907 C.ar    1  UNL1        0.0293
     15 C         144.0739  142.9041  165.9674 C.ar    1  UNL1       -0.0009
     16 C         142.0735  141.8401  167.6899 C.ar    1  UNL1       -0.0071
     17 C         143.0733  141.9888  168.7981 C.ar    1  UNL1       -0.0032
     18 C         142.7493  142.8377  169.9915 C.ar    1  UNL1       -0.0003
     19 C         141.4256  143.5380  170.0767 C.ar    1  UNL1       -0.0000
     20 C         140.4257  143.3893  168.9685 C.ar    1  UNL1       -0.0003
     21 C         140.7497  142.5404  167.7751 C.ar    1  UNL1       -0.0032
     22 N         143.1072  138.8207  167.7353 N.am    1  UNL1       -0.3280
     23 C         142.0335  139.7606  167.2730 C.2     1  UNL1        0.2299
     24 O         140.5959  139.4699  167.5872 O.2     1  UNL1       -0.2743
     25 H         142.8684  138.0130  168.2451 H       1  UNL1        0.1450
     26 H         144.0508  139.0115  167.5291 H       1  UNL1        0.1450
@<TRIPOS>BOND
     1    22    23   am
     2    23    24    2
     3    23     1    1
     4     1    16    1
     5    16    17   ar
     6    17    18   ar
     7    18    19   ar
     8    19    20   ar
     9    20    21   ar
    10     1     2    1
    11     2     3   ar
    12     3     4   ar
    13     4     5   ar
    14     5     6    1
    15     5     7   ar
    16     7     8   ar
    17     1     9    1
    18     9    10   ar
    19    10    11   ar
    20    11    12   ar
    21    12    13    1
    22    12    14   ar
    23    14    15   ar
    24    21    16   ar
    25     8     2   ar
    26    15     9   ar
    27    22    25    1
    28    22    26    1
@<TRIPOS>MOLECULE
*****
 26 28 0 0 0
SMALL
GASTEIGER

@<TRIPOS>ATOM
      1 C         141.0791  141.5360  164.8987 C.3     1  UNL1        0.1248
      2 C         140.2658  140.3039  165.1638 C.ar    1  UNL1       -0.0069
      3 C         138.9323  140.4168  165.8415 C.ar    1  UNL1       -0.0009
      4 C         138.1190  139.1847  166.1066 C.ar    1  UNL1        0.0293
      5 C         138.6391  137.8396  165.6941 C.ar    1  UNL1        0.1401
      6 F         137.8259  136.6074  165.9593 F       1  UNL1       -0.2042
      7 C         139.9725  137.7266  165.0165 C.ar    1  UNL1        0.0293
      8 C         140.7859  138.9588  164.7514 C.ar    1  UNL1       -0.0009
      9 C         141.3131  141.6985  166.3714 C.ar    1  UNL1       -0.0069
     10 C         140.5609  142.7446  167.1394 C.ar    1  UNL1       -0.0009
     11 C         140.7949  142.9071  168.6121 C.ar    1  UNL1        0.0293
     12 C         141.7811  142.0234  169.3168 C.ar    1  UNL1        0.1401
     13 F         142.0151  142.1859  170.7896 F       1  UNL1       -0.2042
     14 C         142.5332  140.9772  168.5488 C.ar    1  UNL1        0.0293
     15 C         142.2992  140.8148  167.0761 C.ar    1  UNL1       -0.0009
     16 C         141.8924  142.7682  164.6335 C.ar    1  UNL1       -0.0071
     17 C         141.2281  144.0071  164.1101 C.ar    1  UNL1       -0.0032
     18 C         142.0414  145.2392  163.8449 C.ar    1  UNL1       -0.0003
     19 C         143.5190  145.2325  164.1032 C.ar    1  UNL1       -0.0000
     20 C         144.1833  143.9936  164.6266 C.ar    1  UNL1       -0.0003
     21 C         143.3700  142.7615  164.8918 C.ar    1  UNL1       -0.0032
     22 N         141.9845  141.0087  162.5213 N.am    1  UNL1       -0.3280
     23 C         140.8451  141.3736  163.4260 C.2     1  UNL1        0.2299
     24 O         139.4716  141.5761  162.8580 O.2     1  UNL1       -0.2743
     25 H         141.8309  140.9021  161.5547 H       1  UNL1        0.1450
     26 H         142.8860  140.8758  162.8941 H       1  UNL1        0.1450
@<TRIPOS>BOND
     1    22    23   am
     2    23    24    2
     3    23     1    1
     4     1    16    1
     5    16    17   ar
     6    17    18   ar
     7    18    19   ar
     8    19    20   ar
     9    20    21   ar
    10     1     2    1
    11     2     3   ar
    12     3     4   ar
    13     4     5   ar
    14     5     6    1
    15     5     7   ar
    16     7     8   ar
    17     1     9    1
    18     9    10   ar
    19    10    11   ar
    20    11    12   ar
    21    12    13    1
    22    12    14   ar
    23    14    15   ar
    24    21    16   ar
    25     8     2   ar
    26    15     9   ar
    27    22    25    1
    28    22    26    1
@<TRIPOS>MOLECULE
*****
 26 28 0 0 0
SMALL
GASTEIGER

@<TRIPOS>ATOM
      1 C         141.8324  141.6768  167.3688 C.3     1  UNL1        0.1248
      2 C         142.8346  141.6767  166.2528 C.ar    1  UNL1       -0.0069
      3 C         143.3717  142.9748  165.7269 C.ar    1  UNL1       -0.0009
      4 C         144.3739  142.9747  164.6109 C.ar    1  UNL1        0.0293
      5 C         144.8390  141.6765  164.0207 C.ar    1  UNL1        0.1401
      6 F         145.8412  141.6764  162.9047 F       1  UNL1       -0.2042
      7 C         144.3020  140.3784  164.5465 C.ar    1  UNL1        0.0293
      8 C         143.2997  140.3785  165.6626 C.ar    1  UNL1       -0.0009
      9 C         140.7262  141.8753  166.3755 C.ar    1  UNL1       -0.0069
     10 C         140.1617  143.2459  166.1455 C.ar    1  UNL1       -0.0009
     11 C         139.0555  143.4444  165.1521 C.ar    1  UNL1        0.0293
     12 C         138.5137  142.2723  164.3886 C.ar    1  UNL1        0.1401
     13 F         137.4075  142.4709  163.3952 F       1  UNL1       -0.2042
     14 C         139.0782  140.9018  164.6186 C.ar    1  UNL1        0.0293
     15 C         140.1845  140.7033  165.6120 C.ar    1  UNL1       -0.0009
     16 C         140.8302  141.6770  168.4850 C.ar    1  UNL1       -0.0071
     17 C         139.9398  140.4880  168.6935 C.ar    1  UNL1       -0.0032
     18 C         138.9376  140.4882  169.8096 C.ar    1  UNL1       -0.0003
     19 C         138.8259  141.6773  170.7171 C.ar    1  UNL1       -0.0000
     20 C         139.7164  142.8662  170.5086 C.ar    1  UNL1       -0.0003
     21 C         140.7185  142.8660  169.3925 C.ar    1  UNL1       -0.0032
     22 N         143.1166  140.1473  169.0306 N.am    1  UNL1       -0.3280
     23 C         142.9386  141.4784  168.3622 C.2     1  UNL1        0.2299
     24 O         143.8669  142.6109  168.6873 O.2     1  UNL1       -0.2743
     25 H         143.8426  140.0170  169.6826 H       1  UNL1        0.1450
     26 H         142.5073  139.4040  168.8173 H       1  UNL1        0.1450
@<TRIPOS>BOND
     1    22    23   am
     2    23    24    2
     3    23     1    1
     4     1    16    1
     5    16    17   ar
     6    17    18   ar
     7    18    19   ar
     8    19    20   ar
     9    20    21   ar
    10     1     2    1
    11     2     3   ar
    12     3     4   ar
    13     4     5   ar
    14     5     6    1
    15     5     7   ar
    16     7     8   ar
    17     1     9    1
    18     9    10   ar
    19    10    11   ar
    20    11    12   ar
    21    12    13    1
    22    12    14   ar
    23    14    15   ar
    24    21    16   ar
    25     8     2   ar
    26    15     9   ar
    27    22    25    1
    28    22    26    1
@<TRIPOS>MOLECULE
*****
 26 28 0 0 0
SMALL
GASTEIGER

@<TRIPOS>ATOM
      1 C         139.7439  140.8569  165.2824 C.3     1  UNL1        0.1248
      2 C         140.4231  142.1272  164.8644 C.ar    1  UNL1       -0.0069
      3 C         139.6676  143.4230  164.8831 C.ar    1  UNL1       -0.0009
      4 C         140.3469  144.6933  164.4650 C.ar    1  UNL1        0.0293
      5 C         141.7817  144.6680  164.0282 C.ar    1  UNL1        0.1401
      6 F         142.4610  145.9383  163.6101 F       1  UNL1       -0.2042
      7 C         142.5372  143.3723  164.0095 C.ar    1  UNL1        0.0293
      8 C         141.8579  142.1019  164.4276 C.ar    1  UNL1       -0.0009
      9 C         140.6362  140.7757  166.4854 C.ar    1  UNL1       -0.0069
     10 C         140.4735  141.7578  167.6076 C.ar    1  UNL1       -0.0009
     11 C         141.3658  141.6766  168.8105 C.ar    1  UNL1        0.0293
     12 C         142.4207  140.6133  168.8914 C.ar    1  UNL1        0.1401
     13 F         143.3131  140.5321  170.0945 F       1  UNL1       -0.2042
     14 C         142.5834  139.6313  167.7694 C.ar    1  UNL1        0.0293
     15 C         141.6911  139.7124  166.5663 C.ar    1  UNL1       -0.0009
     16 C         139.0645  139.5865  165.7005 C.ar    1  UNL1       -0.0071
     17 C         138.1586  139.5788  166.8959 C.ar    1  UNL1       -0.0032
     18 C         137.4793  138.3085  167.3139 C.ar    1  UNL1       -0.0003
     19 C         137.7060  137.0458  166.5365 C.ar    1  UNL1       -0.0000
     20 C         138.6120  137.0536  165.3411 C.ar    1  UNL1       -0.0003
     21 C         139.2912  138.3239  164.9231 C.ar    1  UNL1       -0.0032
     22 N         137.3920  141.2409  164.2473 N.am    1  UNL1       -0.3280
     23 C         138.8516  140.9381  164.0795 C.2     1  UNL1        0.2299
     24 O         139.4188  140.7166  162.7086 O.2     1  UNL1       -0.2743
     25 H         136.8064  141.2942  163.4577 H       1  UNL1        0.1450
     26 H         137.0197  141.3863  165.1470 H       1  UNL1        0.1450
@<TRIPOS>BOND
     1    22    23   am
     2    23    24    2
     3    23     1    1
     4     1    16    1
     5    16    17   ar
     6    17    18   ar
     7    18    19   ar
     8    19    20   ar
     9    20    21   ar
    10     1     2    1
    11     2     3   ar
    12     3     4   ar
    13     4     5   ar
    14     5     6    1
    15     5     7   ar
    16     7     8   ar
    17     1     9    1
    18     9    10   ar
    19    10    11   ar
    20    11    12   ar
    21    12    13    1
    22    12    14   ar
    23    14    15   ar
    24    21    16   ar
    25     8     2   ar
    26    15     9   ar
    27    22    25    1
    28    22    26    1
@<TRIPOS>MOLECULE
*****
 26 28 0 0 0
SMALL
GASTEIGER

@<TRIPOS>ATOM
      1 C         141.6184  140.5104  165.7103 C.3     1  UNL1        0.1248
      2 C         140.3553  139.8629  166.1955 C.ar    1  UNL1       -0.0069
      3 C         139.5855  138.9482  165.2896 C.ar    1  UNL1       -0.0009
      4 C         138.3224  138.3008  165.7748 C.ar    1  UNL1        0.0293
      5 C         137.8292  138.5680  167.1660 C.ar    1  UNL1        0.1401
      6 F         136.5661  137.9206  167.6512 F       1  UNL1       -0.2042
      7 C         138.5990  139.4827  168.0719 C.ar    1  UNL1        0.0293
      8 C         139.8621  140.1302  167.5866 C.ar    1  UNL1       -0.0009
      9 C         140.8148  141.6189  165.0976 C.ar    1  UNL1       -0.0069
     10 C         140.2253  142.6881  165.9690 C.ar    1  UNL1       -0.0009
     11 C         139.4217  143.7966  165.3564 C.ar    1  UNL1        0.0293
     12 C         139.2075  143.8360  163.8723 C.ar    1  UNL1        0.1401
     13 F         138.4039  144.9445  163.2596 F       1  UNL1       -0.2042
     14 C         139.7969  142.7668  163.0008 C.ar    1  UNL1        0.0293
     15 C         140.6006  141.6582  163.6135 C.ar    1  UNL1       -0.0009
     16 C         142.8815  141.1578  165.2250 C.ar    1  UNL1       -0.0071
     17 C         143.2922  142.4967  165.7621 C.ar    1  UNL1       -0.0032
     18 C         144.5553  143.1441  165.2769 C.ar    1  UNL1       -0.0003
     19 C         145.4077  142.4525  164.2545 C.ar    1  UNL1       -0.0000
     20 C         144.9969  141.1136  163.7174 C.ar    1  UNL1       -0.0003
     21 C         143.7339  140.4662  164.2027 C.ar    1  UNL1       -0.0032
     22 N         143.0692  139.5964  167.6621 N.am    1  UNL1       -0.3280
     23 C         142.4220  139.4019  166.3229 C.2     1  UNL1        0.2299
     24 O         142.5783  138.0989  165.5965 O.2     1  UNL1       -0.2743
     25 H         143.5967  138.8688  168.0642 H       1  UNL1        0.1450
     26 H         142.9666  140.4516  168.1389 H       1  UNL1        0.1450
@<TRIPOS>BOND
     1    22    23   am
     2    23    24    2
     3    23     1    1
     4     1    16    1
     5    16    17   ar
     6    17    18   ar
     7    18    19   ar
     8    19    20   ar
     9    20    21   ar
    10     1     2    1
    11     2     3   ar
    12     3     4   ar
    13     4     5   ar
    14     5     6    1
    15     5     7   ar
    16     7     8   ar
    17     1     9    1
    18     9    10   ar
    19    10    11   ar
    20    11    12   ar
    21    12    13    1
    22    12    14   ar
    23    14    15   ar
    24    21    16   ar
    25     8     2   ar
    26    15     9   ar
    27    22    25    1
    28    22    26    1
@<TRIPOS>MOLECULE
*****
 26 28 0 0 0
SMALL
GASTEIGER

@<TRIPOS>ATOM
      1 C         141.2959  140.7224  165.1997 C.3     1  UNL1        0.1248
      2 C         140.2041  139.8006  165.6561 C.ar    1  UNL1       -0.0069
      3 C         139.3981  140.1383  166.8753 C.ar    1  UNL1       -0.0009
      4 C         138.3064  139.2164  167.3316 C.ar    1  UNL1        0.0293
      5 C         138.0207  137.9568  166.5689 C.ar    1  UNL1        0.1401
      6 F         136.9289  137.0350  167.0252 F       1  UNL1       -0.2042
      7 C         138.8266  137.6191  165.3497 C.ar    1  UNL1        0.0293
      8 C         139.9184  138.5410  164.8933 C.ar    1  UNL1       -0.0009
      9 C         140.2673  141.6923  164.6985 C.ar    1  UNL1       -0.0069
     10 C         139.4784  141.3768  163.4622 C.ar    1  UNL1       -0.0009
     11 C         138.4499  142.3467  162.9610 C.ar    1  UNL1        0.0293
     12 C         138.2101  143.6322  163.6959 C.ar    1  UNL1        0.1401
     13 F         137.1815  144.6021  163.1945 F       1  UNL1       -0.2042
     14 C         138.9989  143.9477  164.9320 C.ar    1  UNL1        0.0293
     15 C         140.0275  142.9778  165.4334 C.ar    1  UNL1       -0.0009
     16 C         142.3877  141.6443  164.7434 C.ar    1  UNL1       -0.0071
     17 C         142.6479  141.8310  163.2780 C.ar    1  UNL1       -0.0032
     18 C         143.7397  142.7529  162.8217 C.ar    1  UNL1       -0.0003
     19 C         144.5712  143.4880  163.8308 C.ar    1  UNL1       -0.0000
     20 C         144.3109  143.3012  165.2961 C.ar    1  UNL1       -0.0003
     21 C         143.2192  142.3794  165.7524 C.ar    1  UNL1       -0.0032
     22 N         143.1800  138.9969  164.7278 N.am    1  UNL1       -0.3280
     23 C         142.3244  139.7525  165.7010 C.2     1  UNL1        0.2299
     24 O         142.4974  139.5381  167.1755 O.2     1  UNL1       -0.2743
     25 H         143.8551  138.3603  165.0568 H       1  UNL1        0.1450
     26 H         143.0665  139.1376  163.7600 H       1  UNL1        0.1450
@<TRIPOS>BOND
     1    22    23   am
     2    23    24    2
     3    23     1    1
     4     1    16    1
     5    16    17   ar
     6    17    18   ar
     7    18    19   ar
     8    19    20   ar
     9    20    21   ar
    10     1     2    1
    11     2     3   ar
    12     3     4   ar
    13     4     5   ar
    14     5     6    1
    15     5     7   ar
    16     7     8   ar
    17     1     9    1
    18     9    10   ar
    19    10    11   ar
    20    11    12   ar
    21    12    13    1
    22    12    14   ar
    23    14    15   ar
    24    21    16   ar
    25     8     2   ar
    26    15     9   ar
    27    22    25    1
    28    22    26    1
@<TRIPOS>MOLECULE
*****
 26 28 0 0 0
SMALL
GASTEIGER

@<TRIPOS>ATOM
      1 C         140.7252  141.2056  165.6602 C.3     1  UNL1        0.1248
      2 C         141.7394  140.1537  165.9991 C.ar    1  UNL1       -0.0069
      3 C         142.1477  139.9377  167.4262 C.ar    1  UNL1       -0.0009
      4 C         143.1619  138.8858  167.7651 C.ar    1  UNL1        0.0293
      5 C         143.7676  138.0497  166.6770 C.ar    1  UNL1        0.1401
      6 F         144.7818  136.9978  167.0159 F       1  UNL1       -0.2042
      7 C         143.3593  138.2657  165.2499 C.ar    1  UNL1        0.0293
      8 C         142.3451  139.3177  164.9109 C.ar    1  UNL1       -0.0009
      9 C         141.7546  141.9371  164.8506 C.ar    1  UNL1       -0.0069
     10 C         141.6222  142.0098  163.3582 C.ar    1  UNL1       -0.0009
     11 C         142.6515  142.7413  162.5487 C.ar    1  UNL1        0.0293
     12 C         143.8132  143.4001  163.2315 C.ar    1  UNL1        0.1401
     13 F         144.8426  144.1317  162.4219 F       1  UNL1       -0.2042
     14 C         143.9457  143.3275  164.7239 C.ar    1  UNL1        0.0293
     15 C         142.9163  142.5960  165.5335 C.ar    1  UNL1       -0.0009
     16 C         139.7110  142.2576  165.3212 C.ar    1  UNL1       -0.0071
     17 C         138.5595  141.9262  164.4190 C.ar    1  UNL1       -0.0032
     18 C         137.5453  142.9782  164.0802 C.ar    1  UNL1       -0.0003
     19 C         137.6828  144.3615  164.6435 C.ar    1  UNL1       -0.0000
     20 C         138.8343  144.6930  165.5457 C.ar    1  UNL1       -0.0003
     21 C         139.8484  143.6410  165.8846 C.ar    1  UNL1       -0.0032
     22 N         138.9910  139.2846  165.8882 N.am    1  UNL1       -0.3280
     23 C         139.6959  140.4741  166.4697 C.2     1  UNL1        0.2299
     24 O         139.3714  140.9322  167.8607 O.2     1  UNL1       -0.2743
     25 H         138.3154  138.8045  166.4195 H       1  UNL1        0.1450
     26 H         139.2039  138.9839  164.9752 H       1  UNL1        0.1450
@<TRIPOS>BOND
     1    22    23   am
     2    23    24    2
     3    23     1    1
     4     1    16    1
     5    16    17   ar
     6    17    18   ar
     7    18    19   ar
     8    19    20   ar
     9    20    21   ar
    10     1     2    1
    11     2     3   ar
    12     3     4   ar
    13     4     5   ar
    14     5     6    1
    15     5     7   ar
    16     7     8   ar
    17     1     9    1
    18     9    10   ar
    19    10    11   ar
    20    11    12   ar
    21    12    13    1
    22    12    14   ar
    23    14    15   ar
    24    21    16   ar
    25     8     2   ar
    26    15     9   ar
    27    22    25    1
    28    22    26    1
@<TRIPOS>MOLECULE
*****
 26 28 0 0 0
SMALL
GASTEIGER

@<TRIPOS>ATOM
      1 C         140.0611  143.0251  164.2534 C.3     1  UNL1        0.1248
      2 C         139.9773  142.2316  165.5235 C.ar    1  UNL1       -0.0069
      3 C         139.3539  140.8673  165.5158 C.ar    1  UNL1       -0.0009
      4 C         139.2701  140.0738  166.7859 C.ar    1  UNL1        0.0293
      5 C         139.8097  140.6445  168.0638 C.ar    1  UNL1        0.1401
      6 F         139.7259  139.8510  169.3340 F       1  UNL1       -0.2042
      7 C         140.4331  142.0087  168.0716 C.ar    1  UNL1        0.0293
      8 C         140.5170  142.8024  166.8015 C.ar    1  UNL1       -0.0009
      9 C         141.5416  142.7891  164.2036 C.ar    1  UNL1       -0.0069
     10 C         142.0730  141.4091  163.9522 C.ar    1  UNL1       -0.0009
     11 C         143.5534  141.1730  163.9024 C.ar    1  UNL1        0.0293
     12 C         144.5025  142.3170  164.1040 C.ar    1  UNL1        0.1401
     13 F         145.9830  142.0809  164.0542 F       1  UNL1       -0.2042
     14 C         143.9712  143.6970  164.3554 C.ar    1  UNL1        0.0293
     15 C         142.4906  143.9331  164.4053 C.ar    1  UNL1       -0.0009
     16 C         140.1449  143.8187  162.9832 C.ar    1  UNL1       -0.0071
     17 C         139.8841  145.2957  163.0031 C.ar    1  UNL1       -0.0032
     18 C         139.9678  146.0892  161.7330 C.ar    1  UNL1       -0.0003
     19 C         140.3124  145.4057  160.4429 C.ar    1  UNL1       -0.0000
     20 C         140.5732  143.9287  160.4231 C.ar    1  UNL1       -0.0003
     21 C         140.4894  143.1352  161.6932 C.ar    1  UNL1       -0.0032
     22 N         137.6691  142.5042  163.3833 N.am    1  UNL1       -0.3280
     23 C         138.5807  143.2612  164.3032 C.2     1  UNL1        0.2299
     24 O         138.0117  144.2541  165.2729 O.2     1  UNL1       -0.2743
     25 H         136.6974  142.6592  163.4160 H       1  UNL1        0.1450
     26 H         138.0425  141.8525  162.7468 H       1  UNL1        0.1450
@<TRIPOS>BOND
     1    22    23   am
     2    23    24    2
     3    23     1    1
     4     1    16    1
     5    16    17   ar
     6    17    18   ar
     7    18    19   ar
     8    19    20   ar
     9    20    21   ar
    10     1     2    1
    11     2     3   ar
    12     3     4   ar
    13     4     5   ar
    14     5     6    1
    15     5     7   ar
    16     7     8   ar
    17     1     9    1
    18     9    10   ar
    19    10    11   ar
    20    11    12   ar
    21    12    13    1
    22    12    14   ar
    23    14    15   ar
    24    21    16   ar
    25     8     2   ar
    26    15     9   ar
    27    22    25    1
    28    22    26    1
@<TRIPOS>MOLECULE
*****
 26 28 0 0 0
SMALL
GASTEIGER

@<TRIPOS>ATOM
      1 C         139.9799  139.5736  164.8226 C.3     1  UNL1        0.1248
      2 C         140.3637  139.6699  166.2694 C.ar    1  UNL1       -0.0069
      3 C         139.3101  139.9055  167.3108 C.ar    1  UNL1       -0.0009
      4 C         139.6939  140.0018  168.7576 C.ar    1  UNL1        0.0293
      5 C         141.1313  139.8626  169.1631 C.ar    1  UNL1        0.1401
      6 F         141.5152  139.9589  170.6100 F       1  UNL1       -0.2042
      7 C         142.1849  139.6270  168.1218 C.ar    1  UNL1        0.0293
      8 C         141.8011  139.5306  166.6749 C.ar    1  UNL1       -0.0009
      9 C         139.6946  141.0460  164.8002 C.ar    1  UNL1       -0.0069
     10 C         138.2872  141.5347  164.6260 C.ar    1  UNL1       -0.0009
     11 C         138.0019  143.0072  164.6036 C.ar    1  UNL1        0.0293
     12 C         139.1241  143.9909  164.7555 C.ar    1  UNL1        0.1401
     13 F         138.8387  145.4634  164.7331 F       1  UNL1       -0.2042
     14 C         140.5314  143.5022  164.9297 C.ar    1  UNL1        0.0293
     15 C         140.8168  142.0297  164.9521 C.ar    1  UNL1       -0.0009
     16 C         139.5960  139.4772  163.3757 C.ar    1  UNL1       -0.0071
     17 C         140.4693  140.0966  162.3252 C.ar    1  UNL1       -0.0032
     18 C         140.0855  140.0002  160.8784 C.ar    1  UNL1       -0.0003
     19 C         138.8283  139.2844  160.4821 C.ar    1  UNL1       -0.0000
     20 C         137.9550  138.6650  161.5325 C.ar    1  UNL1       -0.0003
     21 C         138.3388  138.7614  162.9794 C.ar    1  UNL1       -0.0032
     22 N         141.5251  137.5718  164.2265 N.am    1  UNL1       -0.3280
     23 C         140.2651  138.1011  164.8449 C.2     1  UNL1        0.2299
     24 O         139.2905  137.1580  165.4857 O.2     1  UNL1       -0.2743
     25 H         141.7123  136.6053  164.2412 H       1  UNL1        0.1450
     26 H         142.1648  138.1908  163.8060 H       1  UNL1        0.1450
@<TRIPOS>BOND
     1    22    23   am
     2    23    24    2
     3    23     1    1
     4     1    16    1
     5    16    17   ar
     6    17    18   ar
     7    18    19   ar
     8    19    20   ar
     9    20    21   ar
    10     1     2    1
    11     2     3   ar
    12     3     4   ar
    13     4     5   ar
    14     5     6    1
    15     5     7   ar
    16     7     8   ar
    17     1     9    1
    18     9    10   ar
    19    10    11   ar
    20    11    12   ar
    21    12    13    1
    22    12    14   ar
    23    14    15   ar
    24    21    16   ar
    25     8     2   ar
    26    15     9   ar
    27    22    25    1
    28    22    26    1
