@<TRIPOS>MOLECULE
*****
 38 40 0 0 0
SMALL
GASTEIGER

@<TRIPOS>ATOM
      1 C         138.5232  139.4555  166.3177 C.3     1  UNL1        0.1811
      2 O         139.0059  140.8719  166.2135 O.3     1  UNL1       -0.3784
      3 H         138.8990  141.1836  165.3013 H       1  UNL1        0.2106
      4 C         138.0404  138.0391  166.4220 C.3     1  UNL1        0.4197
      5 F         137.5576  136.6228  166.5263 F       1  UNL1       -0.1676
      6 F         138.8774  137.6664  165.2344 F       1  UNL1       -0.1676
      7 F         137.2034  138.4118  167.6096 F       1  UNL1       -0.1676
      8 C         138.1771  139.4661  164.8583 C.3     1  UNL1        0.0807
      9 C         139.9632  144.2402  160.9059 C.2     1  UNL1        0.1857
     10 C         140.2043  142.7966  161.2344 C.2     1  UNL1        0.0359
     11 C         139.4422  142.1437  162.3493 C.2     1  UNL1        0.0095
     12 C         139.4662  140.7482  162.8989 C.2     1  UNL1        0.0124
     13 C         138.4778  140.6765  164.0249 C.2     1  UNL1        0.0568
     14 N         137.8430  142.0276  164.1713 N.2     1  UNL1       -0.2661
     15 C         138.4390  142.9344  163.1357 C.3     1  UNL1        0.1661
     16 C         138.1979  144.3780  162.8071 C.2     1  UNL1        0.1025
     17 N         138.9599  145.0309  161.6923 N.2     1  UNL1       -0.2281
     18 S         140.7252  144.8930  159.7910 S.O2    1  UNL1        0.0250
     19 O         141.7147  143.7658  159.8072 O.2     1  UNL1       -0.1672
     20 O         139.7357  146.0203  159.7747 O.2     1  UNL1       -0.1672
     21 C         140.7753  145.9590  157.4222 C.3     1  UNL1        0.0276
     22 C         141.4873  145.5459  158.6761 C.3     1  UNL1        0.1577
     23 C         138.8693  139.4449  167.7772 C.3     1  UNL1        0.0398
     24 C         140.1311  140.1015  168.2536 C.3     1  UNL1        0.0216
     25 C         140.9158  139.3361  167.2298 C.3     1  UNL1        0.0045
     26 C         139.3463  140.8669  169.2775 C.3     1  UNL1        0.0045
     27 C         141.3928  140.7580  168.7299 C.ar    1  UNL1       -0.0182
     28 C         142.0859  140.2481  169.9587 C.ar    1  UNL1       -0.0018
     29 C         143.3476  140.9046  170.4350 C.ar    1  UNL1        0.0293
     30 C         143.9164  142.0710  169.6826 C.ar    1  UNL1        0.1403
     31 F         145.1782  142.7275  170.1589 F       1  UNL1       -0.2042
     32 C         143.2234  142.5808  168.4538 C.ar    1  UNL1        0.0338
     33 C         141.9616  141.9243  167.9775 C.ar    1  UNL1        0.0514
     34 C         141.2686  142.4341  166.7488 C.2     1  UNL1        0.2425
     35 N         141.7833  142.0640  165.3893 N.am    1  UNL1       -0.3253
     36 O         140.0609  143.3141  166.8795 O.2     1  UNL1       -0.2704
     37 H         142.5760  141.4864  165.3035 H       1  UNL1        0.1453
     38 H         141.3285  142.3986  164.5828 H       1  UNL1        0.1453
@<TRIPOS>BOND
     1    21    22    1
     2    22    18    1
     3    18    19    2
     4    18    20    2
     5    18     9    1
     6     9    10    2
     7    10    11    1
     8    11    12    2
     9    12    13    1
    10    13     8    1
    11     8     1    1
    12     1     2    1
    13     1    23    1
    14    23    24    1
    15    24    25    1
    16    24    26    1
    17    24    27    1
    18    27    28   ar
    19    28    29   ar
    20    29    30   ar
    21    30    31    1
    22    30    32   ar
    23    32    33   ar
    24    33    34    1
    25    34    35   am
    26    34    36    2
    27     1     4    1
    28     4     5    1
    29     4     6    1
    30     4     7    1
    31    13    14    2
    32    14    15    1
    33    15    16    1
    34    16    17    2
    35    17     9    1
    36    15    11    1
    37    33    27   ar
    38     2     3    1
    39    35    37    1
    40    35    38    1
@<TRIPOS>MOLECULE
*****
 38 40 0 0 0
SMALL
GASTEIGER

@<TRIPOS>ATOM
      1 C         139.5000  139.1177  165.4101 C.3     1  UNL1        0.1811
      2 O         140.5988  139.9596  164.8324 O.3     1  UNL1       -0.3784
      3 H         141.1365  139.4212  164.2309 H       1  UNL1        0.2106
      4 C         138.4012  138.2757  165.9878 C.3     1  UNL1        0.4197
      5 F         137.3024  137.4338  166.5655 F       1  UNL1       -0.1676
      6 F         139.2791  137.0633  165.8908 F       1  UNL1       -0.1676
      7 F         137.5233  139.4880  166.0848 F       1  UNL1       -0.1676
      8 C         139.9935  137.9369  164.6277 C.3     1  UNL1        0.0807
      9 C         142.8692  138.7262  158.9084 C.2     1  UNL1        0.1857
     10 C         141.5511  138.4343  159.5620 C.2     1  UNL1        0.0359
     11 C         141.4551  138.3616  161.0572 C.2     1  UNL1        0.0095
     12 C         140.3009  138.0936  161.9770 C.2     1  UNL1        0.0124
     13 C         140.8099  138.1474  163.3870 C.2     1  UNL1        0.0568
     14 N         142.2785  138.4485  163.3387 N.2     1  UNL1       -0.2661
     15 C         142.6773  138.5810  161.8987 C.3     1  UNL1        0.1661
     16 C         143.9955  138.8729  161.2450 C.2     1  UNL1        0.1025
     17 N         144.0914  138.9456  159.7499 N.2     1  UNL1       -0.2281
     18 S         142.9652  138.7988  157.4132 S.O2    1  UNL1        0.0250
     19 O         141.7670  137.9045  157.2929 O.2     1  UNL1       -0.1672
     20 O         144.1634  139.6932  157.5335 O.2     1  UNL1       -0.1672
     21 C         144.0755  138.0400  155.1903 C.3     1  UNL1        0.0276
     22 C         143.0611  138.8714  155.9180 C.3     1  UNL1        0.1577
     23 C         139.0066  140.2984  166.1925 C.3     1  UNL1        0.0398
     24 C         139.9191  140.9908  167.1610 C.3     1  UNL1        0.0216
     25 C         140.0413  142.1501  166.2171 C.3     1  UNL1        0.0045
     26 C         139.7969  139.8314  168.1050 C.3     1  UNL1        0.0045
     27 C         140.8316  141.6831  168.1295 C.ar    1  UNL1       -0.0182
     28 C         140.2935  142.7517  169.0342 C.ar    1  UNL1       -0.0018
     29 C         141.2060  143.4441  170.0027 C.ar    1  UNL1        0.0293
     30 C         142.6567  143.0679  170.0665 C.ar    1  UNL1        0.1403
     31 F         143.5692  143.7602  171.0349 F       1  UNL1       -0.2042
     32 C         143.1948  141.9993  169.1617 C.ar    1  UNL1        0.0338
     33 C         142.2822  141.3069  168.1932 C.ar    1  UNL1        0.0514
     34 C         142.8204  140.2383  167.2885 C.2     1  UNL1        0.2425
     35 N         143.1351  140.5563  165.8567 N.am    1  UNL1       -0.3253
     36 O         143.0438  138.8519  167.8154 O.2     1  UNL1       -0.2704
     37 H         142.9885  141.4663  165.5108 H       1  UNL1        0.1453
     38 H         143.4883  139.8550  165.2629 H       1  UNL1        0.1453
@<TRIPOS>BOND
     1    21    22    1
     2    22    18    1
     3    18    19    2
     4    18    20    2
     5    18     9    1
     6     9    10    2
     7    10    11    1
     8    11    12    2
     9    12    13    1
    10    13     8    1
    11     8     1    1
    12     1     2    1
    13     1    23    1
    14    23    24    1
    15    24    25    1
    16    24    26    1
    17    24    27    1
    18    27    28   ar
    19    28    29   ar
    20    29    30   ar
    21    30    31    1
    22    30    32   ar
    23    32    33   ar
    24    33    34    1
    25    34    35   am
    26    34    36    2
    27     1     4    1
    28     4     5    1
    29     4     6    1
    30     4     7    1
    31    13    14    2
    32    14    15    1
    33    15    16    1
    34    16    17    2
    35    17     9    1
    36    15    11    1
    37    33    27   ar
    38     2     3    1
    39    35    37    1
    40    35    38    1
@<TRIPOS>MOLECULE
*****
 38 40 0 0 0
SMALL
GASTEIGER

@<TRIPOS>ATOM
      1 C         140.1872  138.9074  164.4206 C.3     1  UNL1        0.1811
      2 O         141.1398  139.9558  163.9273 O.3     1  UNL1       -0.3784
      3 H         140.7103  140.4834  163.2359 H       1  UNL1        0.2106
      4 C         139.2345  137.8590  164.9139 C.3     1  UNL1        0.4197
      5 F         138.2819  136.8106  165.4072 F       1  UNL1       -0.1676
      6 F         138.1143  138.8555  164.8685 F       1  UNL1       -0.1676
      7 F         140.3547  136.8625  164.9592 F       1  UNL1       -0.1676
      8 C         139.1459  139.4022  163.4610 C.3     1  UNL1        0.0807
      9 C         140.3364  144.4196  159.5865 C.2     1  UNL1        0.1857
     10 C         140.3494  142.9212  159.6527 C.2     1  UNL1        0.0359
     11 C         139.9393  142.2226  160.9152 C.2     1  UNL1        0.0095
     12 C         139.8520  140.7690  161.2751 C.2     1  UNL1        0.0124
     13 C         139.3751  140.6707  162.6939 C.2     1  UNL1        0.0568
     14 N         139.1676  142.0633  163.2108 N.2     1  UNL1       -0.2661
     15 C         139.5164  143.0225  162.1116 C.3     1  UNL1        0.1661
     16 C         139.5034  144.5211  162.0453 C.2     1  UNL1        0.1025
     17 N         139.9134  145.2196  160.7829 N.2     1  UNL1       -0.2281
     18 S         140.7464  145.1181  158.3240 S.O2    1  UNL1        0.0250
     19 O         139.5809  144.5048  157.6062 O.2     1  UNL1       -0.1672
     20 O         141.9120  145.7315  159.0419 O.2     1  UNL1       -0.1672
     21 C         140.1120  146.3545  156.1288 C.3     1  UNL1        0.0276
     22 C         141.1564  145.8167  157.0615 C.3     1  UNL1        0.1577
     23 C         141.2285  138.4127  165.3802 C.3     1  UNL1        0.0398
     24 C         141.7990  139.3403  166.4117 C.3     1  UNL1        0.0216
     25 C         140.4158  139.8052  166.7587 C.3     1  UNL1        0.0045
     26 C         143.1823  138.8754  166.0646 C.3     1  UNL1        0.0045
     27 C         142.3695  140.2680  167.4432 C.ar    1  UNL1       -0.0182
     28 C         142.5370  139.8030  168.8594 C.ar    1  UNL1       -0.0018
     29 C         143.1075  140.7306  169.8909 C.ar    1  UNL1        0.0293
     30 C         143.5106  142.1233  169.5062 C.ar    1  UNL1        0.1403
     31 F         144.0811  143.0509  170.5377 F       1  UNL1       -0.2042
     32 C         143.3431  142.5883  168.0899 C.ar    1  UNL1        0.0338
     33 C         142.7726  141.6606  167.0584 C.ar    1  UNL1        0.0514
     34 C         142.6051  142.1256  165.6422 C.2     1  UNL1        0.2425
     35 N         141.3736  142.8828  165.2421 N.am    1  UNL1       -0.3253
     36 O         143.6691  141.8334  164.6261 O.2     1  UNL1       -0.2704
     37 H         140.6752  143.0746  165.9090 H       1  UNL1        0.1453
     38 H         141.2637  143.1880  164.3125 H       1  UNL1        0.1453
@<TRIPOS>BOND
     1    21    22    1
     2    22    18    1
     3    18    19    2
     4    18    20    2
     5    18     9    1
     6     9    10    2
     7    10    11    1
     8    11    12    2
     9    12    13    1
    10    13     8    1
    11     8     1    1
    12     1     2    1
    13     1    23    1
    14    23    24    1
    15    24    25    1
    16    24    26    1
    17    24    27    1
    18    27    28   ar
    19    28    29   ar
    20    29    30   ar
    21    30    31    1
    22    30    32   ar
    23    32    33   ar
    24    33    34    1
    25    34    35   am
    26    34    36    2
    27     1     4    1
    28     4     5    1
    29     4     6    1
    30     4     7    1
    31    13    14    2
    32    14    15    1
    33    15    16    1
    34    16    17    2
    35    17     9    1
    36    15    11    1
    37    33    27   ar
    38     2     3    1
    39    35    37    1
    40    35    38    1
@<TRIPOS>MOLECULE
*****
 38 40 0 0 0
SMALL
GASTEIGER

@<TRIPOS>ATOM
      1 C         139.3363  139.2193  165.1648 C.3     1  UNL1        0.1811
      2 O         140.1096  140.3549  164.5629 O.3     1  UNL1       -0.3784
      3 H         139.5090  140.9210  164.0533 H       1  UNL1        0.2106
      4 C         138.5629  138.0837  165.7667 C.3     1  UNL1        0.4197
      5 F         137.7895  136.9481  166.3686 F       1  UNL1       -0.1676
      6 F         139.5984  137.1170  165.2735 F       1  UNL1       -0.1676
      7 F         137.5274  139.0503  166.2599 F       1  UNL1       -0.1676
      8 C         138.0777  139.7462  164.5417 C.3     1  UNL1        0.0807
      9 C         138.0189  141.3744  158.3008 C.2     1  UNL1        0.1857
     10 C         137.8313  140.2249  159.2460 C.2     1  UNL1        0.0359
     11 C         137.9755  140.4378  160.7238 C.2     1  UNL1        0.0095
     12 C         137.8491  139.5025  161.8897 C.2     1  UNL1        0.0124
     13 C         138.1027  140.2870  163.1428 C.2     1  UNL1        0.0568
     14 N         138.3858  141.7070  162.7514 N.2     1  UNL1       -0.2661
     15 C         138.3071  141.8003  161.2564 C.3     1  UNL1        0.1661
     16 C         138.4947  142.9498  160.3111 C.2     1  UNL1        0.1025
     17 N         138.3505  142.7369  158.8334 N.2     1  UNL1       -0.2281
     18 S         137.8747  141.1615  156.8230 S.O2    1  UNL1        0.0250
     19 O         138.3045  139.7337  156.9869 O.2     1  UNL1       -0.1672
     20 O         137.4449  142.5892  156.6591 O.2     1  UNL1       -0.1672
     21 C         136.8621  141.8657  154.5364 C.3     1  UNL1        0.0276
     22 C         137.7306  140.9484  155.3452 C.3     1  UNL1        0.1577
     23 C         140.5948  138.6924  165.7878 C.3     1  UNL1        0.0398
     24 C         141.3767  139.5494  166.7389 C.3     1  UNL1        0.0216
     25 C         142.6562  139.0606  166.1274 C.3     1  UNL1        0.0045
     26 C         140.0971  140.0382  167.3503 C.3     1  UNL1        0.0045
     27 C         142.1585  140.4063  167.6898 C.ar    1  UNL1       -0.0182
     28 C         142.4403  139.9191  169.0803 C.ar    1  UNL1       -0.0018
     29 C         143.2221  140.7760  170.0312 C.ar    1  UNL1        0.0293
     30 C         143.7222  142.1202  169.5918 C.ar    1  UNL1        0.1403
     31 F         144.5041  142.9771  170.5428 F       1  UNL1       -0.2042
     32 C         143.4405  142.6074  168.2014 C.ar    1  UNL1        0.0338
     33 C         142.6586  141.7504  167.2504 C.ar    1  UNL1        0.0514
     34 C         142.3769  142.2377  165.8600 C.2     1  UNL1        0.2425
     35 N         143.4306  142.1260  164.7983 N.am    1  UNL1       -0.3253
     36 O         141.0415  142.8365  165.5313 O.2     1  UNL1       -0.2704
     37 H         144.3071  141.7330  165.0140 H       1  UNL1        0.1453
     38 H         143.2457  142.4458  163.8857 H       1  UNL1        0.1453
@<TRIPOS>BOND
     1    21    22    1
     2    22    18    1
     3    18    19    2
     4    18    20    2
     5    18     9    1
     6     9    10    2
     7    10    11    1
     8    11    12    2
     9    12    13    1
    10    13     8    1
    11     8     1    1
    12     1     2    1
    13     1    23    1
    14    23    24    1
    15    24    25    1
    16    24    26    1
    17    24    27    1
    18    27    28   ar
    19    28    29   ar
    20    29    30   ar
    21    30    31    1
    22    30    32   ar
    23    32    33   ar
    24    33    34    1
    25    34    35   am
    26    34    36    2
    27     1     4    1
    28     4     5    1
    29     4     6    1
    30     4     7    1
    31    13    14    2
    32    14    15    1
    33    15    16    1
    34    16    17    2
    35    17     9    1
    36    15    11    1
    37    33    27   ar
    38     2     3    1
    39    35    37    1
    40    35    38    1
@<TRIPOS>MOLECULE
*****
 38 40 0 0 0
SMALL
GASTEIGER

@<TRIPOS>ATOM
      1 C         143.7579  140.2186  163.3263 C.3     1  UNL1        0.1811
      2 O         142.4367  139.5188  163.2047 O.3     1  UNL1       -0.3784
      3 H         142.0232  139.7534  162.3593 H       1  UNL1        0.2106
      4 C         145.0790  140.9185  163.4479 C.3     1  UNL1        0.4197
      5 F         146.4002  141.6183  163.5695 F       1  UNL1       -0.1676
      6 F         144.4962  142.1333  162.7888 F       1  UNL1       -0.1676
      7 F         145.6619  139.7036  164.1069 F       1  UNL1       -0.1676
      8 C         143.5466  140.8508  161.9825 C.3     1  UNL1        0.0807
      9 C         141.3456  137.2089  157.1353 C.2     1  UNL1        0.1857
     10 C         142.5767  137.5482  157.9221 C.2     1  UNL1        0.0359
     11 C         142.5028  138.5513  159.0350 C.2     1  UNL1        0.0095
     12 C         143.5416  139.0833  159.9774 C.2     1  UNL1        0.0124
     13 C         142.8784  140.0758  160.8858 C.2     1  UNL1        0.0568
     14 N         141.4300  140.1573  160.5048 N.2     1  UNL1       -0.2661
     15 C         141.1978  139.2151  159.3610 C.3     1  UNL1        0.1661
     16 C         139.9666  138.8758  158.5741 C.2     1  UNL1        0.1025
     17 N         140.0405  137.8727  157.4613 N.2     1  UNL1       -0.2281
     18 S         141.4195  136.2059  156.0225 S.O2    1  UNL1        0.0250
     19 O         140.2573  136.8706  155.3462 O.2     1  UNL1       -0.1672
     20 O         142.5818  135.5411  156.6988 O.2     1  UNL1       -0.1672
     21 C         141.5885  133.7393  155.2241 C.3     1  UNL1        0.0276
     22 C         141.4934  135.2028  154.9096 C.3     1  UNL1        0.1577
     23 C         143.9691  139.5864  164.6700 C.3     1  UNL1        0.0398
     24 C         142.9125  139.7033  165.7284 C.3     1  UNL1        0.0216
     25 C         142.7762  138.2099  165.7572 C.3     1  UNL1        0.0045
     26 C         143.0489  141.1969  165.6995 C.3     1  UNL1        0.0045
     27 C         141.8560  139.8202  166.7867 C.ar    1  UNL1       -0.0182
     28 C         142.2460  139.8612  168.2345 C.ar    1  UNL1       -0.0018
     29 C         141.1895  139.9780  169.2928 C.ar    1  UNL1        0.0293
     30 C         139.7429  140.0539  168.9033 C.ar    1  UNL1        0.1403
     31 F         138.6863  140.1707  169.9616 F       1  UNL1       -0.2042
     32 C         139.3529  140.0129  167.4555 C.ar    1  UNL1        0.0338
     33 C         140.4095  139.8960  166.3971 C.ar    1  UNL1        0.0514
     34 C         140.0195  139.8551  164.9493 C.2     1  UNL1        0.2425
     35 N         139.9204  141.1286  164.1629 N.am    1  UNL1       -0.3253
     36 O         139.7286  138.5406  164.2878 O.2     1  UNL1       -0.2704
     37 H         140.1114  141.9913  164.5971 H       1  UNL1        0.1453
     38 H         139.6645  141.1017  163.2126 H       1  UNL1        0.1453
@<TRIPOS>BOND
     1    21    22    1
     2    22    18    1
     3    18    19    2
     4    18    20    2
     5    18     9    1
     6     9    10    2
     7    10    11    1
     8    11    12    2
     9    12    13    1
    10    13     8    1
    11     8     1    1
    12     1     2    1
    13     1    23    1
    14    23    24    1
    15    24    25    1
    16    24    26    1
    17    24    27    1
    18    27    28   ar
    19    28    29   ar
    20    29    30   ar
    21    30    31    1
    22    30    32   ar
    23    32    33   ar
    24    33    34    1
    25    34    35   am
    26    34    36    2
    27     1     4    1
    28     4     5    1
    29     4     6    1
    30     4     7    1
    31    13    14    2
    32    14    15    1
    33    15    16    1
    34    16    17    2
    35    17     9    1
    36    15    11    1
    37    33    27   ar
    38     2     3    1
    39    35    37    1
    40    35    38    1
@<TRIPOS>MOLECULE
*****
 38 40 0 0 0
SMALL
GASTEIGER

@<TRIPOS>ATOM
      1 C         141.5098  143.1517  163.6488 C.3     1  UNL1        0.1811
      2 O         141.4888  141.6564  163.7652 O.3     1  UNL1       -0.3784
      3 H         141.1478  141.2727  162.9421 H       1  UNL1        0.2106
      4 C         141.5308  144.6471  163.5324 C.3     1  UNL1        0.4197
      5 F         141.5518  146.1424  163.4160 F       1  UNL1       -0.1676
      6 F         140.1298  144.6251  162.9968 F       1  UNL1       -0.1676
      7 F         142.9317  144.6691  164.0680 F       1  UNL1       -0.1676
      8 C         140.9578  143.0511  162.2577 C.3     1  UNL1        0.0807
      9 C         144.8147  141.0715  157.4818 C.2     1  UNL1        0.1857
     10 C         144.4406  142.2651  158.3097 C.2     1  UNL1        0.0359
     11 C         143.3881  142.1414  159.3713 C.2     1  UNL1        0.0095
     12 C         142.8144  143.1361  160.3365 C.2     1  UNL1        0.0124
     13 C         141.7815  142.4334  161.1668 C.2     1  UNL1        0.0568
     14 N         141.7168  141.0046  160.7148 N.2     1  UNL1       -0.2661
     15 C         142.7097  140.8242  159.6051 C.3     1  UNL1        0.1661
     16 C         143.0839  139.6305  158.7772 C.2     1  UNL1        0.1025
     17 N         144.1364  139.7542  157.7156 N.2     1  UNL1       -0.2281
     18 S         145.8672  141.1951  156.4203 S.O2    1  UNL1        0.0250
     19 O         145.4874  139.8457  155.8866 O.2     1  UNL1       -0.1672
     20 O         146.2470  142.5446  156.9540 O.2     1  UNL1       -0.1672
     21 C         148.2161  142.0085  155.6645 C.3     1  UNL1        0.0276
     22 C         146.9197  141.3188  155.3586 C.3     1  UNL1        0.1577
     23 C         142.0618  143.2522  165.0399 C.3     1  UNL1        0.0398
     24 C         141.3574  142.5735  166.1771 C.3     1  UNL1        0.0216
     25 C         142.6143  141.8251  166.5088 C.3     1  UNL1        0.0045
     26 C         140.1005  143.3220  165.8454 C.3     1  UNL1        0.0045
     27 C         140.6532  141.8948  167.3143 C.ar    1  UNL1       -0.0182
     28 C         140.6223  142.5386  168.6688 C.ar    1  UNL1       -0.0018
     29 C         139.9181  141.8599  169.8060 C.ar    1  UNL1        0.0293
     30 C         139.2447  140.5372  169.5888 C.ar    1  UNL1        0.1403
     31 F         138.5404  139.8585  170.7260 F       1  UNL1       -0.2042
     32 C         139.2755  139.8933  168.2344 C.ar    1  UNL1        0.0338
     33 C         139.9798  140.5722  167.0971 C.ar    1  UNL1        0.0514
     34 C         140.0107  139.9283  165.7427 C.2     1  UNL1        0.2425
     35 N         138.9220  140.2145  164.7512 N.am    1  UNL1       -0.3253
     36 O         141.1301  138.9983  165.3797 O.2     1  UNL1       -0.2704
     37 H         138.1872  140.8249  164.9895 H       1  UNL1        0.1453
     38 H         138.9422  139.7919  163.8623 H       1  UNL1        0.1453
@<TRIPOS>BOND
     1    21    22    1
     2    22    18    1
     3    18    19    2
     4    18    20    2
     5    18     9    1
     6     9    10    2
     7    10    11    1
     8    11    12    2
     9    12    13    1
    10    13     8    1
    11     8     1    1
    12     1     2    1
    13     1    23    1
    14    23    24    1
    15    24    25    1
    16    24    26    1
    17    24    27    1
    18    27    28   ar
    19    28    29   ar
    20    29    30   ar
    21    30    31    1
    22    30    32   ar
    23    32    33   ar
    24    33    34    1
    25    34    35   am
    26    34    36    2
    27     1     4    1
    28     4     5    1
    29     4     6    1
    30     4     7    1
    31    13    14    2
    32    14    15    1
    33    15    16    1
    34    16    17    2
    35    17     9    1
    36    15    11    1
    37    33    27   ar
    38     2     3    1
    39    35    37    1
    40    35    38    1
@<TRIPOS>MOLECULE
*****
 38 40 0 0 0
SMALL
GASTEIGER

@<TRIPOS>ATOM
      1 C         139.1771  141.8337  163.7574 C.3     1  UNL1        0.1811
      2 O         139.9769  140.5718  163.6231 O.3     1  UNL1       -0.3784
      3 H         140.5099  140.6115  162.8136 H       1  UNL1        0.2106
      4 C         138.3773  143.0956  163.8918 C.3     1  UNL1        0.4197
      5 F         137.5775  144.3574  164.0262 F       1  UNL1       -0.1676
      6 F         139.5772  143.8993  163.4867 F       1  UNL1       -0.1676
      7 F         137.1774  142.2918  164.2968 F       1  UNL1       -0.1676
      8 C         139.7686  142.3448  162.4773 C.3     1  UNL1        0.0807
      9 C         142.0619  138.2298  158.0715 C.2     1  UNL1        0.1857
     10 C         140.8322  138.9776  158.4942 C.2     1  UNL1        0.0359
     11 C         140.8740  139.8695  159.6996 C.2     1  UNL1        0.0095
     12 C         139.8288  140.7253  160.3517 C.2     1  UNL1        0.0124
     13 C         140.4544  141.3982  161.5373 C.2     1  UNL1        0.0568
     14 N         141.8861  140.9583  161.6181 N.2     1  UNL1       -0.2661
     15 C         142.1455  140.0134  160.4823 C.3     1  UNL1        0.1661
     16 C         143.3752  139.2656  160.0596 C.2     1  UNL1        0.1025
     17 N         143.3334  138.3738  158.8542 N.2     1  UNL1       -0.2281
     18 S         142.0200  137.3380  156.8662 S.O2    1  UNL1        0.0250
     19 O         143.5186  137.3521  156.8037 O.2     1  UNL1       -0.1672
     20 O         140.5213  137.3238  156.9287 O.2     1  UNL1       -0.1672
     21 C         140.6693  135.8890  155.1850 C.3     1  UNL1        0.0276
     22 C         141.9782  136.4461  155.6608 C.3     1  UNL1        0.1577
     23 C         138.5856  141.3225  165.0375 C.3     1  UNL1        0.0398
     24 C         139.4832  140.8428  166.1395 C.3     1  UNL1        0.0216
     25 C         138.8798  139.4735  166.0349 C.3     1  UNL1        0.0045
     26 C         140.0866  142.2121  166.2442 C.3     1  UNL1        0.0045
     27 C         140.3807  140.3630  167.2415 C.ar    1  UNL1       -0.0182
     28 C         139.9412  140.4792  168.6709 C.ar    1  UNL1       -0.0018
     29 C         140.8387  139.9995  169.7729 C.ar    1  UNL1        0.0293
     30 C         142.1757  139.4035  169.4454 C.ar    1  UNL1        0.1403
     31 F         143.0732  138.9237  170.5473 F       1  UNL1       -0.2042
     32 C         142.6152  139.2873  168.0159 C.ar    1  UNL1        0.0338
     33 C         141.7176  139.7671  166.9140 C.ar    1  UNL1        0.0514
     34 C         142.1571  139.6509  165.4845 C.2     1  UNL1        0.2425
     35 N         142.8835  140.7876  164.8284 N.am    1  UNL1       -0.3253
     36 O         141.8703  138.3981  164.7111 O.2     1  UNL1       -0.2704
     37 H         143.0718  141.6098  165.3360 H       1  UNL1        0.1453
     38 H         143.1720  140.7113  163.8902 H       1  UNL1        0.1453
@<TRIPOS>BOND
     1    21    22    1
     2    22    18    1
     3    18    19    2
     4    18    20    2
     5    18     9    1
     6     9    10    2
     7    10    11    1
     8    11    12    2
     9    12    13    1
    10    13     8    1
    11     8     1    1
    12     1     2    1
    13     1    23    1
    14    23    24    1
    15    24    25    1
    16    24    26    1
    17    24    27    1
    18    27    28   ar
    19    28    29   ar
    20    29    30   ar
    21    30    31    1
    22    30    32   ar
    23    32    33   ar
    24    33    34    1
    25    34    35   am
    26    34    36    2
    27     1     4    1
    28     4     5    1
    29     4     6    1
    30     4     7    1
    31    13    14    2
    32    14    15    1
    33    15    16    1
    34    16    17    2
    35    17     9    1
    36    15    11    1
    37    33    27   ar
    38     2     3    1
    39    35    37    1
    40    35    38    1
@<TRIPOS>MOLECULE
*****
 38 40 0 0 0
SMALL
GASTEIGER

@<TRIPOS>ATOM
      1 C         141.3076  144.1906  162.6301 C.3     1  UNL1        0.1811
      2 O         139.9359  143.6420  162.3706 O.3     1  UNL1       -0.3784
      3 H         139.8249  143.4854  161.4198 H       1  UNL1        0.2106
      4 C         142.6794  144.7392  162.8897 C.3     1  UNL1        0.4197
      5 F         144.0511  145.2879  163.1493 F       1  UNL1       -0.1676
      6 F         143.2645  143.7147  161.9635 F       1  UNL1       -0.1676
      7 F         142.0943  145.7638  163.8159 F       1  UNL1       -0.1676
      8 C         141.6104  144.1278  161.1623 C.3     1  UNL1        0.0807
      9 C         137.5491  141.3134  157.0165 C.2     1  UNL1        0.1857
     10 C         137.9855  142.6422  157.5586 C.2     1  UNL1        0.0359
     11 C         139.0657  142.7104  158.5972 C.2     1  UNL1        0.0095
     12 C         139.6994  143.8671  159.3117 C.2     1  UNL1        0.0124
     13 C         140.7349  143.3212  160.2497 C.2     1  UNL1        0.0568
     14 N         140.7411  141.8274  160.1150 N.2     1  UNL1       -0.2661
     15 C         139.7094  141.4498  159.0936 C.3     1  UNL1        0.1661
     16 C         139.2730  140.1210  158.5515 C.2     1  UNL1        0.1025
     17 N         138.1929  140.0529  157.5129 N.2     1  UNL1       -0.2281
     18 S         136.4690  141.2453  155.9779 S.O2    1  UNL1        0.0250
     19 O         137.2867  142.1156  155.0703 O.2     1  UNL1       -0.1672
     20 O         135.6511  140.3750  156.8856 O.2     1  UNL1       -0.1672
     21 C         133.9495  141.1144  155.3571 C.3     1  UNL1        0.0276
     22 C         135.3888  141.1771  154.9393 C.3     1  UNL1        0.1577
     23 C         141.0048  144.2534  164.0978 C.3     1  UNL1        0.0398
     24 C         140.4021  143.0673  164.7907 C.3     1  UNL1        0.0216
     25 C         141.4972  142.1957  164.2512 C.3     1  UNL1        0.0045
     26 C         139.3070  143.9390  165.3303 C.3     1  UNL1        0.0045
     27 C         139.7995  141.8813  165.4836 C.ar    1  UNL1       -0.0182
     28 C         140.2247  141.5318  166.8790 C.ar    1  UNL1       -0.0018
     29 C         139.6221  140.3458  167.5718 C.ar    1  UNL1        0.0293
     30 C         138.5942  139.5091  166.8693 C.ar    1  UNL1        0.1403
     31 F         137.9915  138.3231  167.5621 F       1  UNL1       -0.2042
     32 C         138.1689  139.8586  165.4739 C.ar    1  UNL1        0.0338
     33 C         138.7716  141.0447  164.7811 C.ar    1  UNL1        0.0514
     34 C         138.3464  141.3941  163.3857 C.2     1  UNL1        0.2425
     35 N         138.9398  140.6659  162.2162 N.am    1  UNL1       -0.3253
     36 O         137.3278  142.4718  163.1597 O.2     1  UNL1       -0.2704
     37 H         139.6084  139.9585  162.3645 H       1  UNL1        0.1453
     38 H         138.6608  140.8952  161.3004 H       1  UNL1        0.1453
@<TRIPOS>BOND
     1    21    22    1
     2    22    18    1
     3    18    19    2
     4    18    20    2
     5    18     9    1
     6     9    10    2
     7    10    11    1
     8    11    12    2
     9    12    13    1
    10    13     8    1
    11     8     1    1
    12     1     2    1
    13     1    23    1
    14    23    24    1
    15    24    25    1
    16    24    26    1
    17    24    27    1
    18    27    28   ar
    19    28    29   ar
    20    29    30   ar
    21    30    31    1
    22    30    32   ar
    23    32    33   ar
    24    33    34    1
    25    34    35   am
    26    34    36    2
    27     1     4    1
    28     4     5    1
    29     4     6    1
    30     4     7    1
    31    13    14    2
    32    14    15    1
    33    15    16    1
    34    16    17    2
    35    17     9    1
    36    15    11    1
    37    33    27   ar
    38     2     3    1
    39    35    37    1
    40    35    38    1
@<TRIPOS>MOLECULE
*****
 38 40 0 0 0
SMALL
GASTEIGER

@<TRIPOS>ATOM
      1 C         141.2934  144.2386  162.8321 C.3     1  UNL1        0.1811
      2 O         139.8674  143.8033  162.6681 O.3     1  UNL1       -0.3784
      3 H         139.6444  143.7752  161.7245 H       1  UNL1        0.2106
      4 C         142.7195  144.6739  162.9962 C.3     1  UNL1        0.4197
      5 F         144.1455  145.1092  163.1602 F       1  UNL1       -0.1676
      6 F         142.2882  145.7129  163.9883 F       1  UNL1       -0.1676
      7 F         143.1508  143.6349  162.0040 F       1  UNL1       -0.1676
      8 C         141.4318  144.3464  161.3424 C.3     1  UNL1        0.0807
      9 C         137.4683  141.5029  157.1224 C.2     1  UNL1        0.1857
     10 C         138.0700  142.8220  157.5073 C.2     1  UNL1        0.0359
     11 C         139.0076  142.9065  158.6751 C.2     1  UNL1        0.0095
     12 C         139.7490  144.0587  159.2857 C.2     1  UNL1        0.0124
     13 C         140.5431  143.5361  160.4460 C.2     1  UNL1        0.0568
     14 N         140.2925  142.0611  160.5526 N.2     1  UNL1       -0.2661
     15 C         139.3435  141.6719  159.4581 C.3     1  UNL1        0.1661
     16 C         138.7418  140.3528  159.0732 C.2     1  UNL1        0.1025
     17 N         137.8042  140.2684  157.9054 N.2     1  UNL1       -0.2281
     18 S         136.5307  141.4185  155.9546 S.O2    1  UNL1        0.0250
     19 O         136.5405  142.9139  155.8387 O.2     1  UNL1       -0.1672
     20 O         136.5209  139.9230  156.0706 O.2     1  UNL1       -0.1672
     21 C         134.1557  140.9647  155.0042 C.3     1  UNL1        0.0276
     22 C         135.5931  141.3341  154.7868 C.3     1  UNL1        0.1577
     23 C         141.1550  144.1307  164.3218 C.3     1  UNL1        0.0398
     24 C         140.4826  142.9347  164.9279 C.3     1  UNL1        0.0216
     25 C         141.5625  142.0498  164.3797 C.3     1  UNL1        0.0045
     26 C         139.4026  143.8197  165.4762 C.3     1  UNL1        0.0045
     27 C         139.8102  141.7387  165.5341 C.ar    1  UNL1       -0.0182
     28 C         138.8425  140.9303  164.7216 C.ar    1  UNL1       -0.0018
     29 C         138.1702  139.7343  165.3277 C.ar    1  UNL1        0.0293
     30 C         138.4655  139.3466  166.7464 C.ar    1  UNL1        0.1403
     31 F         137.7931  138.1505  167.3525 F       1  UNL1       -0.2042
     32 C         139.4332  140.1549  167.5588 C.ar    1  UNL1        0.0338
     33 C         140.1056  141.3510  166.9526 C.ar    1  UNL1        0.0514
     34 C         141.0733  142.1594  167.7651 C.2     1  UNL1        0.2425
     35 N         142.5414  141.8585  167.7005 N.am    1  UNL1       -0.3253
     36 O         140.5729  143.2686  168.6421 O.2     1  UNL1       -0.2704
     37 H         142.8698  141.1304  167.1249 H       1  UNL1        0.1453
     38 H         143.1765  142.3890  168.2338 H       1  UNL1        0.1453
@<TRIPOS>BOND
     1    21    22    1
     2    22    18    1
     3    18    19    2
     4    18    20    2
     5    18     9    1
     6     9    10    2
     7    10    11    1
     8    11    12    2
     9    12    13    1
    10    13     8    1
    11     8     1    1
    12     1     2    1
    13     1    23    1
    14    23    24    1
    15    24    25    1
    16    24    26    1
    17    24    27    1
    18    27    28   ar
    19    28    29   ar
    20    29    30   ar
    21    30    31    1
    22    30    32   ar
    23    32    33   ar
    24    33    34    1
    25    34    35   am
    26    34    36    2
    27     1     4    1
    28     4     5    1
    29     4     6    1
    30     4     7    1
    31    13    14    2
    32    14    15    1
    33    15    16    1
    34    16    17    2
    35    17     9    1
    36    15    11    1
    37    33    27   ar
    38     2     3    1
    39    35    37    1
    40    35    38    1
