@<TRIPOS>MOLECULE
*****
 28 30 0 0 0
SMALL
GASTEIGER

@<TRIPOS>ATOM
      1 C         140.5453  139.9235  168.7995 C.ar    1  UNL1        0.0274
      2 C         139.2957  139.9092  167.9700 C.ar    1  UNL1        0.0013
      3 C         139.3808  139.6843  166.4894 C.ar    1  UNL1        0.0145
      4 C         140.7156  139.4736  165.8384 C.ar    1  UNL1        0.0513
      5 C         141.9653  139.4878  166.6679 C.ar    1  UNL1        0.0509
      6 C         141.8802  139.7128  168.1485 C.ar    1  UNL1        0.1322
      7 O         143.1298  139.7270  168.9780 O.3     1  UNL1       -0.5057
      8 H         143.9637  139.5954  168.5713 H       1  UNL1        0.2922
      9 N         140.8007  139.2487  164.3578 N.pl3   1  UNL1       -0.3124
     10 H         141.5689  138.7650  163.9767 H       1  UNL1        0.1522
     11 C         139.7154  139.7607  163.4577 C.ar    1  UNL1        0.0513
     12 C         138.7290  138.8055  162.8539 C.ar    1  UNL1        0.0353
     13 C         137.6437  139.3175  161.9539 C.ar    1  UNL1        0.1001
     14 N         137.5449  140.7847  161.6578 N.ar    1  UNL1       -0.2437
     15 C         138.5312  141.7398  162.2617 C.ar    1  UNL1        0.0833
     16 C         138.4323  143.2070  161.9656 C.ar    1  UNL1        0.0305
     17 C         139.4187  144.1621  162.5694 C.ar    1  UNL1        0.0592
     18 CL        139.3198  145.6293  162.2733 Cl      1  UNL1       -0.0822
     19 C         140.5041  143.6501  163.4695 C.ar    1  UNL1        0.0115
     20 C         140.6030  142.1830  163.7656 C.ar    1  UNL1        0.0036
     21 C         139.6165  141.2278  163.1616 C.ar    1  UNL1        0.0312
     22 C         140.4602  140.1484  170.2801 C.3     1  UNL1        0.0986
     23 N         141.1508  141.3265  170.9007 N.3     1  UNL1       -0.2958
     24 H         140.9266  141.3087  171.8956 H       1  UNL1        0.1235
     25 C         142.2995  142.9071  170.0748 C.3     1  UNL1        0.0158
     26 C         140.8513  142.7134  170.4140 C.3     1  UNL1        0.0423
     27 C         139.4031  142.5197  170.7533 C.3     1  UNL1        0.0158
     28 C         140.5518  144.1003  169.9274 C.3     1  UNL1        0.0158
@<TRIPOS>BOND
     1    25    26    1
     2    26    27    1
     3    26    28    1
     4    26    23    1
     5    23    22    1
     6    22     1    1
     7     1     2   ar
     8     2     3   ar
     9     3     4   ar
    10     4     9    1
    11     9    11    1
    12    11    12   ar
    13    12    13   ar
    14    13    14   ar
    15    14    15   ar
    16    15    16   ar
    17    16    17   ar
    18    17    18    1
    19    17    19   ar
    20    19    20   ar
    21    20    21   ar
    22     4     5   ar
    23     5     6   ar
    24     6     7    1
    25     6     1   ar
    26    21    11   ar
    27    21    15   ar
    28    23    24    1
    29     9    10    1
    30     7     8    1
@<TRIPOS>MOLECULE
*****
 28 30 0 0 0
SMALL
GASTEIGER

@<TRIPOS>ATOM
      1 C         140.8609  139.8682  169.2389 C.ar    1  UNL1        0.0274
      2 C         139.9027  140.0677  168.1023 C.ar    1  UNL1        0.0013
      3 C         140.3677  139.8837  166.6881 C.ar    1  UNL1        0.0145
      4 C         141.7910  139.5002  166.4105 C.ar    1  UNL1        0.0513
      5 C         142.7494  139.3007  167.5471 C.ar    1  UNL1        0.0509
      6 C         142.2843  139.4847  168.9613 C.ar    1  UNL1        0.1322
      7 O         143.2426  139.2852  170.0979 O.3     1  UNL1       -0.5057
      8 H         144.1317  139.0456  169.9245 H       1  UNL1        0.2922
      9 N         142.2560  139.3162  164.9963 N.pl3   1  UNL1       -0.3124
     10 H         141.9651  138.5295  164.4809 H       1  UNL1        0.1522
     11 C         143.1643  140.3310  164.3675 C.ar    1  UNL1        0.0513
     12 C         144.6496  140.1232  164.3885 C.ar    1  UNL1        0.0353
     13 C         145.5578  141.1380  163.7596 C.ar    1  UNL1        0.1001
     14 N         144.9806  142.3605  163.1098 N.ar    1  UNL1       -0.2437
     15 C         143.4952  142.5682  163.0887 C.ar    1  UNL1        0.0833
     16 C         142.9180  143.7907  162.4388 C.ar    1  UNL1        0.0305
     17 C         141.4327  143.9985  162.4178 C.ar    1  UNL1        0.0592
     18 CL        140.8555  145.2210  161.7679 Cl      1  UNL1       -0.0822
     19 C         140.5244  142.9837  163.0467 C.ar    1  UNL1        0.0115
     20 C         141.1016  141.7612  163.6966 C.ar    1  UNL1        0.0036
     21 C         142.5871  141.5535  163.7176 C.ar    1  UNL1        0.0312
     22 C         140.3959  140.0522  170.6531 C.3     1  UNL1        0.0986
     23 N         140.7834  141.2843  171.4157 N.3     1  UNL1       -0.2958
     24 H         140.1465  141.3517  172.2096 H       1  UNL1        0.1235
     25 C         142.2710  142.6168  170.7005 C.3     1  UNL1        0.0158
     26 C         140.7715  142.6216  170.7363 C.3     1  UNL1        0.0423
     27 C         139.2719  142.6264  170.7721 C.3     1  UNL1        0.0158
     28 C         140.7595  143.9589  170.0570 C.3     1  UNL1        0.0158
@<TRIPOS>BOND
     1    25    26    1
     2    26    27    1
     3    26    28    1
     4    26    23    1
     5    23    22    1
     6    22     1    1
     7     1     2   ar
     8     2     3   ar
     9     3     4   ar
    10     4     9    1
    11     9    11    1
    12    11    12   ar
    13    12    13   ar
    14    13    14   ar
    15    14    15   ar
    16    15    16   ar
    17    16    17   ar
    18    17    18    1
    19    17    19   ar
    20    19    20   ar
    21    20    21   ar
    22     4     5   ar
    23     5     6   ar
    24     6     7    1
    25     6     1   ar
    26    21    11   ar
    27    21    15   ar
    28    23    24    1
    29     9    10    1
    30     7     8    1
@<TRIPOS>MOLECULE
*****
 28 30 0 0 0
SMALL
GASTEIGER

@<TRIPOS>ATOM
      1 C         139.6222  141.0325  169.1411 C.ar    1  UNL1        0.0274
      2 C         140.2293  141.2948  167.7948 C.ar    1  UNL1        0.0013
      3 C         139.7950  140.4893  166.6064 C.ar    1  UNL1        0.0145
      4 C         138.7535  139.4215  166.7642 C.ar    1  UNL1        0.0513
      5 C         138.1462  139.1591  168.1105 C.ar    1  UNL1        0.0509
      6 C         138.5806  139.9647  169.2990 C.ar    1  UNL1        0.1322
      7 O         137.9734  139.7024  170.6452 O.3     1  UNL1       -0.5057
      8 H         137.3228  139.0353  170.7438 H       1  UNL1        0.2922
      9 N         138.3191  138.6160  165.5757 N.pl3   1  UNL1       -0.3124
     10 H         137.4498  138.1539  165.5852 H       1  UNL1        0.1522
     11 C         139.2093  138.5144  164.3726 C.ar    1  UNL1        0.0513
     12 C         140.2991  137.4845  164.3308 C.ar    1  UNL1        0.0353
     13 C         141.1892  137.3830  163.1277 C.ar    1  UNL1        0.1001
     14 N         140.9895  138.3113  161.9665 N.ar    1  UNL1       -0.2437
     15 C         139.8998  139.3412  162.0084 C.ar    1  UNL1        0.0833
     16 C         139.7002  140.2695  160.8472 C.ar    1  UNL1        0.0305
     17 C         138.6104  141.2993  160.8890 C.ar    1  UNL1        0.0592
     18 CL        138.4108  142.2277  159.7278 Cl      1  UNL1       -0.0822
     19 C         137.7202  141.4009  162.0921 C.ar    1  UNL1        0.0115
     20 C         137.9199  140.4726  163.2533 C.ar    1  UNL1        0.0036
     21 C         139.0097  139.4427  163.2114 C.ar    1  UNL1        0.0312
     22 C         140.0565  141.8380  170.3296 C.3     1  UNL1        0.0986
     23 N         141.3656  141.5413  170.9989 N.3     1  UNL1       -0.2958
     24 H         141.3498  142.0173  171.9008 H       1  UNL1        0.1235
     25 C         143.0807  140.4849  170.3335 C.3     1  UNL1        0.0158
     26 C         142.6532  141.9227  170.3305 C.3     1  UNL1        0.0423
     27 C         142.2257  143.3605  170.3274 C.3     1  UNL1        0.0158
     28 C         143.9407  142.3041  169.6620 C.3     1  UNL1        0.0158
@<TRIPOS>BOND
     1    25    26    1
     2    26    27    1
     3    26    28    1
     4    26    23    1
     5    23    22    1
     6    22     1    1
     7     1     2   ar
     8     2     3   ar
     9     3     4   ar
    10     4     9    1
    11     9    11    1
    12    11    12   ar
    13    12    13   ar
    14    13    14   ar
    15    14    15   ar
    16    15    16   ar
    17    16    17   ar
    18    17    18    1
    19    17    19   ar
    20    19    20   ar
    21    20    21   ar
    22     4     5   ar
    23     5     6   ar
    24     6     7    1
    25     6     1   ar
    26    21    11   ar
    27    21    15   ar
    28    23    24    1
    29     9    10    1
    30     7     8    1
@<TRIPOS>MOLECULE
*****
 28 30 0 0 0
SMALL
GASTEIGER

@<TRIPOS>ATOM
      1 C         142.2571  140.0153  167.2242 C.ar    1  UNL1        0.0274
      2 C         143.0202  138.7487  166.9729 C.ar    1  UNL1        0.0013
      3 C         143.9537  138.6552  165.8024 C.ar    1  UNL1        0.0145
      4 C         144.1240  139.8283  164.8833 C.ar    1  UNL1        0.0513
      5 C         143.3608  141.0950  165.1346 C.ar    1  UNL1        0.0509
      6 C         142.4274  141.1885  166.3051 C.ar    1  UNL1        0.1322
      7 O         141.6642  142.4552  166.5564 O.3     1  UNL1       -0.5057
      8 H         141.7706  143.1880  165.9823 H       1  UNL1        0.2922
      9 N         145.0574  139.7347  163.7128 N.pl3   1  UNL1       -0.3124
     10 H         145.8796  139.1975  163.7806 H       1  UNL1        0.1522
     11 C         144.7381  140.4598  162.4391 C.ar    1  UNL1        0.0513
     12 C         145.0711  141.9158  162.3012 C.ar    1  UNL1        0.0353
     13 C         144.7518  142.6408  161.0275 C.ar    1  UNL1        0.1001
     14 N         144.0995  141.9098  159.8917 N.ar    1  UNL1       -0.2437
     15 C         143.7665  140.4537  160.0296 C.ar    1  UNL1        0.0833
     16 C         143.1141  139.7227  158.8937 C.ar    1  UNL1        0.0305
     17 C         142.7811  138.2667  159.0316 C.ar    1  UNL1        0.0592
     18 CL        142.1288  137.5356  157.8958 Cl      1  UNL1       -0.0822
     19 C         143.1004  137.5416  160.3054 C.ar    1  UNL1        0.0115
     20 C         143.7528  138.2726  161.4412 C.ar    1  UNL1        0.0036
     21 C         144.0858  139.7287  161.3033 C.ar    1  UNL1        0.0312
     22 C         141.3236  140.1089  168.3946 C.3     1  UNL1        0.0986
     23 N         141.6994  140.9341  169.5895 N.3     1  UNL1       -0.2958
     24 H         141.4636  140.3823  170.4144 H       1  UNL1        0.1235
     25 C         139.7195  141.6929  169.6535 C.3     1  UNL1        0.0158
     26 C         141.0890  142.2900  169.7866 C.3     1  UNL1        0.0423
     27 C         142.4586  142.8872  169.9196 C.3     1  UNL1        0.0158
     28 C         140.4786  143.6460  169.9836 C.3     1  UNL1        0.0158
@<TRIPOS>BOND
     1    25    26    1
     2    26    27    1
     3    26    28    1
     4    26    23    1
     5    23    22    1
     6    22     1    1
     7     1     2   ar
     8     2     3   ar
     9     3     4   ar
    10     4     9    1
    11     9    11    1
    12    11    12   ar
    13    12    13   ar
    14    13    14   ar
    15    14    15   ar
    16    15    16   ar
    17    16    17   ar
    18    17    18    1
    19    17    19   ar
    20    19    20   ar
    21    20    21   ar
    22     4     5   ar
    23     5     6   ar
    24     6     7    1
    25     6     1   ar
    26    21    11   ar
    27    21    15   ar
    28    23    24    1
    29     9    10    1
    30     7     8    1
@<TRIPOS>MOLECULE
*****
 28 30 0 0 0
SMALL
GASTEIGER

@<TRIPOS>ATOM
      1 C         139.5104  139.5639  167.2834 C.ar    1  UNL1        0.0274
      2 C         140.6669  139.8240  166.3645 C.ar    1  UNL1        0.0013
      3 C         140.7241  139.1554  165.0229 C.ar    1  UNL1        0.0145
      4 C         139.6246  138.2266  164.6004 C.ar    1  UNL1        0.0513
      5 C         138.4680  137.9665  165.5194 C.ar    1  UNL1        0.0509
      6 C         138.4108  138.6351  166.8609 C.ar    1  UNL1        0.1322
      7 O         137.2542  138.3749  167.7799 O.3     1  UNL1       -0.5057
      8 H         136.5674  137.7948  167.5160 H       1  UNL1        0.2922
      9 N         139.6818  137.5580  163.2589 N.pl3   1  UNL1       -0.3124
     10 H         139.9883  136.6253  163.1864 H       1  UNL1        0.1522
     11 C         139.2718  138.3106  162.0277 C.ar    1  UNL1        0.0513
     12 C         137.8748  138.8428  161.9045 C.ar    1  UNL1        0.0353
     13 C         137.4649  139.5953  160.6734 C.ar    1  UNL1        0.1001
     14 N         138.4519  139.8156  159.5656 N.ar    1  UNL1       -0.2437
     15 C         139.8489  139.2834  159.6888 C.ar    1  UNL1        0.0833
     16 C         140.8359  139.5037  158.5810 C.ar    1  UNL1        0.0305
     17 C         142.2328  138.9715  158.7043 C.ar    1  UNL1        0.0592
     18 CL        143.2198  139.1918  157.5964 Cl      1  UNL1       -0.0822
     19 C         142.6428  138.2189  159.9354 C.ar    1  UNL1        0.0115
     20 C         141.6558  137.9986  161.0432 C.ar    1  UNL1        0.0036
     21 C         140.2588  138.5309  160.9199 C.ar    1  UNL1        0.0312
     22 C         139.4532  140.2325  168.6250 C.3     1  UNL1        0.0986
     23 N         140.3744  139.7905  169.7231 N.3     1  UNL1       -0.2958
     24 H         139.8888  139.9649  170.6029 H       1  UNL1        0.1235
     25 C         141.1211  141.7720  169.8490 C.3     1  UNL1        0.0158
     26 C         141.7370  140.4043  169.8516 C.3     1  UNL1        0.0423
     27 C         142.3530  139.0366  169.8541 C.3     1  UNL1        0.0158
     28 C         143.0996  141.0182  169.9801 C.3     1  UNL1        0.0158
@<TRIPOS>BOND
     1    25    26    1
     2    26    27    1
     3    26    28    1
     4    26    23    1
     5    23    22    1
     6    22     1    1
     7     1     2   ar
     8     2     3   ar
     9     3     4   ar
    10     4     9    1
    11     9    11    1
    12    11    12   ar
    13    12    13   ar
    14    13    14   ar
    15    14    15   ar
    16    15    16   ar
    17    16    17   ar
    18    17    18    1
    19    17    19   ar
    20    19    20   ar
    21    20    21   ar
    22     4     5   ar
    23     5     6   ar
    24     6     7    1
    25     6     1   ar
    26    21    11   ar
    27    21    15   ar
    28    23    24    1
    29     9    10    1
    30     7     8    1
@<TRIPOS>MOLECULE
*****
 28 30 0 0 0
SMALL
GASTEIGER

@<TRIPOS>ATOM
      1 C         139.5559  140.1270  167.8759 C.ar    1  UNL1        0.0274
      2 C         140.4801  140.8794  166.9651 C.ar    1  UNL1        0.0013
      3 C         140.2877  140.8120  165.4791 C.ar    1  UNL1        0.0145
      4 C         139.1711  139.9922  164.9038 C.ar    1  UNL1        0.0513
      5 C         138.2468  139.2398  165.8146 C.ar    1  UNL1        0.0509
      6 C         138.4392  139.3071  167.3006 C.ar    1  UNL1        0.1322
      7 O         137.5149  138.5547  168.2114 O.3     1  UNL1       -0.5057
      8 H         136.8174  138.0426  167.8521 H       1  UNL1        0.2922
      9 N         138.9787  139.9249  163.4177 N.pl3   1  UNL1       -0.3124
     10 H         138.2132  139.4327  163.0422 H       1  UNL1        0.1522
     11 C         139.9528  140.6074  162.5036 C.ar    1  UNL1        0.0513
     12 C         141.0229  139.8106  161.8182 C.ar    1  UNL1        0.0353
     13 C         141.9969  140.4931  160.9042 C.ar    1  UNL1        0.1001
     14 N         141.9007  141.9725  160.6756 N.ar    1  UNL1       -0.2437
     15 C         140.8306  142.7693  161.3610 C.ar    1  UNL1        0.0833
     16 C         140.7344  144.2486  161.1323 C.ar    1  UNL1        0.0305
     17 C         139.6642  145.0455  161.8177 C.ar    1  UNL1        0.0592
     18 CL        139.5680  146.5248  161.5890 Cl      1  UNL1       -0.0822
     19 C         138.6902  144.3629  162.7318 C.ar    1  UNL1        0.0115
     20 C         138.7863  142.8836  162.9604 C.ar    1  UNL1        0.0036
     21 C         139.8566  142.0868  162.2750 C.ar    1  UNL1        0.0312
     22 C         139.7483  140.1943  169.3620 C.3     1  UNL1        0.0986
     23 N         139.7789  141.5244  170.0548 N.3     1  UNL1       -0.2958
     24 H         139.1542  142.1413  169.5355 H       1  UNL1        0.1235
     25 C         140.4640  143.4788  169.5958 C.3     1  UNL1        0.0158
     26 C         141.0778  142.2576  170.2138 C.3     1  UNL1        0.0423
     27 C         141.6915  141.0363  170.8317 C.3     1  UNL1        0.0158
     28 C         142.3767  142.9908  170.3727 C.3     1  UNL1        0.0158
@<TRIPOS>BOND
     1    25    26    1
     2    26    27    1
     3    26    28    1
     4    26    23    1
     5    23    22    1
     6    22     1    1
     7     1     2   ar
     8     2     3   ar
     9     3     4   ar
    10     4     9    1
    11     9    11    1
    12    11    12   ar
    13    12    13   ar
    14    13    14   ar
    15    14    15   ar
    16    15    16   ar
    17    16    17   ar
    18    17    18    1
    19    17    19   ar
    20    19    20   ar
    21    20    21   ar
    22     4     5   ar
    23     5     6   ar
    24     6     7    1
    25     6     1   ar
    26    21    11   ar
    27    21    15   ar
    28    23    24    1
    29     9    10    1
    30     7     8    1
@<TRIPOS>MOLECULE
*****
 28 30 0 0 0
SMALL
GASTEIGER

@<TRIPOS>ATOM
      1 C         142.3044  140.2207  167.2072 C.ar    1  UNL1        0.0274
      2 C         143.2365  139.1041  166.8407 C.ar    1  UNL1        0.0013
      3 C         142.8327  138.1007  165.8014 C.ar    1  UNL1        0.0145
      4 C         141.4969  138.2139  165.1286 C.ar    1  UNL1        0.0513
      5 C         140.5648  139.3306  165.4951 C.ar    1  UNL1        0.0509
      6 C         140.9685  140.3340  166.5344 C.ar    1  UNL1        0.1322
      7 O         140.0365  141.4506  166.9009 O.3     1  UNL1       -0.5057
      8 H         139.2020  141.5214  166.4806 H       1  UNL1        0.2922
      9 N         141.0931  137.2105  164.0893 N.pl3   1  UNL1       -0.3124
     10 H         141.3429  136.2641  164.1955 H       1  UNL1        0.1522
     11 C         140.3089  137.6490  162.8882 C.ar    1  UNL1        0.0513
     12 C         138.8118  137.7151  162.9532 C.ar    1  UNL1        0.0353
     13 C         138.0276  138.1536  161.7520 C.ar    1  UNL1        0.1001
     14 N         138.7405  138.5260  160.4859 N.ar    1  UNL1       -0.2437
     15 C         140.2376  138.4599  160.4209 C.ar    1  UNL1        0.0833
     16 C         140.9506  138.8323  159.1548 C.ar    1  UNL1        0.0305
     17 C         142.4477  138.7661  159.0898 C.ar    1  UNL1        0.0592
     18 CL        143.1606  139.1385  157.8237 Cl      1  UNL1       -0.0822
     19 C         143.2319  138.3276  160.2909 C.ar    1  UNL1        0.0115
     20 C         142.5190  137.9552  161.5571 C.ar    1  UNL1        0.0036
     21 C         141.0218  138.0214  161.6220 C.ar    1  UNL1        0.0312
     22 C         142.7082  141.2242  168.2465 C.3     1  UNL1        0.0986
     23 N         142.2179  141.0818  169.6569 N.3     1  UNL1       -0.2958
     24 H         142.0283  140.0904  169.8041 H       1  UNL1        0.1235
     25 C         140.3063  140.5262  170.3899 C.3     1  UNL1        0.0158
     26 C         140.9959  141.8275  170.1050 C.3     1  UNL1        0.0423
     27 C         141.6855  143.1287  169.8201 C.3     1  UNL1        0.0158
     28 C         139.7739  142.5731  170.5531 C.3     1  UNL1        0.0158
@<TRIPOS>BOND
     1    25    26    1
     2    26    27    1
     3    26    28    1
     4    26    23    1
     5    23    22    1
     6    22     1    1
     7     1     2   ar
     8     2     3   ar
     9     3     4   ar
    10     4     9    1
    11     9    11    1
    12    11    12   ar
    13    12    13   ar
    14    13    14   ar
    15    14    15   ar
    16    15    16   ar
    17    16    17   ar
    18    17    18    1
    19    17    19   ar
    20    19    20   ar
    21    20    21   ar
    22     4     5   ar
    23     5     6   ar
    24     6     7    1
    25     6     1   ar
    26    21    11   ar
    27    21    15   ar
    28    23    24    1
    29     9    10    1
    30     7     8    1
@<TRIPOS>MOLECULE
*****
 28 30 0 0 0
SMALL
GASTEIGER

@<TRIPOS>ATOM
      1 C         139.7031  140.2704  167.6129 C.ar    1  UNL1        0.0274
      2 C         138.4812  139.4122  167.4700 C.ar    1  UNL1        0.0013
      3 C         138.3202  138.5309  166.2669 C.ar    1  UNL1        0.0145
      4 C         139.3811  138.5078  165.2068 C.ar    1  UNL1        0.0513
      5 C         140.6030  139.3661  165.3496 C.ar    1  UNL1        0.0509
      6 C         140.7640  140.2474  166.5527 C.ar    1  UNL1        0.1322
      7 O         141.9859  141.1056  166.6956 O.3     1  UNL1       -0.5057
      8 H         142.6486  141.0912  166.0334 H       1  UNL1        0.2922
      9 N         139.2201  137.6265  164.0037 N.pl3   1  UNL1       -0.3124
     10 H         138.5814  136.8776  164.0240 H       1  UNL1        0.1522
     11 C         140.0324  137.8863  162.7696 C.ar    1  UNL1        0.0513
     12 C         141.4561  137.4197  162.6968 C.ar    1  UNL1        0.0353
     13 C         142.2682  137.6794  161.4628 C.ar    1  UNL1        0.1001
     14 N         141.6567  138.4058  160.3016 N.ar    1  UNL1       -0.2437
     15 C         140.2330  138.8724  160.3744 C.ar    1  UNL1        0.0833
     16 C         139.6215  139.5987  159.2131 C.ar    1  UNL1        0.0305
     17 C         138.1978  140.0653  159.2859 C.ar    1  UNL1        0.0592
     18 CL        137.5863  140.7917  158.1247 Cl      1  UNL1       -0.0822
     19 C         137.3855  139.8056  160.5200 C.ar    1  UNL1        0.0115
     20 C         137.9971  139.0792  161.6812 C.ar    1  UNL1        0.0036
     21 C         139.4208  138.6126  161.6084 C.ar    1  UNL1        0.0312
     22 C         139.8641  141.1517  168.8160 C.3     1  UNL1        0.0986
     23 N         140.9223  140.8453  169.8340 N.3     1  UNL1       -0.2958
     24 H         140.4801  140.9203  170.7501 H       1  UNL1        0.1235
     25 C         142.9890  140.4253  170.0630 C.3     1  UNL1        0.0158
     26 C         142.1729  141.6717  169.8878 C.3     1  UNL1        0.0423
     27 C         141.3569  142.9180  169.7126 C.3     1  UNL1        0.0158
     28 C         143.4236  142.4981  169.9416 C.3     1  UNL1        0.0158
@<TRIPOS>BOND
     1    25    26    1
     2    26    27    1
     3    26    28    1
     4    26    23    1
     5    23    22    1
     6    22     1    1
     7     1     2   ar
     8     2     3   ar
     9     3     4   ar
    10     4     9    1
    11     9    11    1
    12    11    12   ar
    13    12    13   ar
    14    13    14   ar
    15    14    15   ar
    16    15    16   ar
    17    16    17   ar
    18    17    18    1
    19    17    19   ar
    20    19    20   ar
    21    20    21   ar
    22     4     5   ar
    23     5     6   ar
    24     6     7    1
    25     6     1   ar
    26    21    11   ar
    27    21    15   ar
    28    23    24    1
    29     9    10    1
    30     7     8    1
@<TRIPOS>MOLECULE
*****
 28 30 0 0 0
SMALL
GASTEIGER

@<TRIPOS>ATOM
      1 C         137.9803  139.2288  162.0373 C.ar    1  UNL1        0.0274
      2 C         138.7839  138.0130  162.3925 C.ar    1  UNL1        0.0013
      3 C         139.3238  137.8506  163.7825 C.ar    1  UNL1        0.0145
      4 C         139.0602  138.9040  164.8173 C.ar    1  UNL1        0.0513
      5 C         138.2566  140.1199  164.4621 C.ar    1  UNL1        0.0509
      6 C         137.7167  140.2822  163.0721 C.ar    1  UNL1        0.1322
      7 O         136.9132  141.4980  162.7169 O.3     1  UNL1       -0.5057
      8 H         136.7485  142.1560  163.3632 H       1  UNL1        0.2922
      9 N         139.6001  138.7417  166.2073 N.pl3   1  UNL1       -0.3124
     10 H         139.5380  137.8701  166.6608 H       1  UNL1        0.1522
     11 C         140.2347  139.9073  166.9063 C.ar    1  UNL1        0.0513
     12 C         139.6547  140.4170  168.1923 C.ar    1  UNL1        0.0353
     13 C         140.2893  141.5827  168.8912 C.ar    1  UNL1        0.1001
     14 N         141.5039  142.2386  168.3042 N.ar    1  UNL1       -0.2437
     15 C         142.0838  141.7289  167.0182 C.ar    1  UNL1        0.0833
     16 C         143.2984  142.3848  166.4311 C.ar    1  UNL1        0.0305
     17 C         143.8783  141.8751  165.1451 C.ar    1  UNL1        0.0592
     18 CL        145.0929  142.5311  164.5581 Cl      1  UNL1       -0.0822
     19 C         143.2437  140.7094  164.4461 C.ar    1  UNL1        0.0115
     20 C         142.0292  140.0535  165.0332 C.ar    1  UNL1        0.0036
     21 C         141.4492  140.5633  166.3193 C.ar    1  UNL1        0.0312
     22 C         137.4404  139.3911  160.6473 C.3     1  UNL1        0.0986
     23 N         137.8489  140.5718  159.8172 N.3     1  UNL1       -0.2958
     24 H         137.2883  140.5411  158.9656 H       1  UNL1        0.1235
     25 C         139.3558  142.0317  160.1299 C.3     1  UNL1        0.0158
     26 C         139.2779  140.7296  159.3894 C.3     1  UNL1        0.0423
     27 C         139.2000  139.4274  158.6489 C.3     1  UNL1        0.0158
     28 C         140.7069  140.8873  158.9616 C.3     1  UNL1        0.0158
@<TRIPOS>BOND
     1    25    26    1
     2    26    27    1
     3    26    28    1
     4    26    23    1
     5    23    22    1
     6    22     1    1
     7     1     2   ar
     8     2     3   ar
     9     3     4   ar
    10     4     9    1
    11     9    11    1
    12    11    12   ar
    13    12    13   ar
    14    13    14   ar
    15    14    15   ar
    16    15    16   ar
    17    16    17   ar
    18    17    18    1
    19    17    19   ar
    20    19    20   ar
    21    20    21   ar
    22     4     5   ar
    23     5     6   ar
    24     6     7    1
    25     6     1   ar
    26    21    11   ar
    27    21    15   ar
    28    23    24    1
    29     9    10    1
    30     7     8    1
