@<TRIPOS>MOLECULE
*****
 37 42 0 0 0
SMALL
GASTEIGER

@<TRIPOS>ATOM
      1 C         141.4700  139.5440  170.0719 C.3     1  UNL1        0.0666
      2 S         140.1903  140.2819  169.8113 S.3     1  UNL1       -0.0756
      3 C         139.4554  141.7367  166.2887 C.ar    1  UNL1        0.1669
      4 N         140.1145  142.9083  166.9545 N.ar    1  UNL1       -0.1282
      5 N         140.4699  142.5059  168.3551 N.ar    1  UNL1       -0.1221
      6 C         140.0306  141.0857  168.5549 C.ar    1  UNL1        0.1932
      7 N         139.4037  140.6103  167.2779 N.ar    1  UNL1       -0.2884
      8 C         138.8263  139.2477  167.0329 C.3     1  UNL1        0.1340
      9 C         139.5904  146.4797  161.3151 C.3     1  UNL1        0.0521
     10 C         139.4275  145.2844  162.2066 C.ar    1  UNL1        0.0593
     11 C         139.9440  145.3227  163.6144 C.ar    1  UNL1        0.0147
     12 C         139.7812  144.1274  164.5058 C.ar    1  UNL1        0.0028
     13 C         139.1018  142.8937  163.9895 C.ar    1  UNL1        0.0206
     14 C         138.9390  141.6984  164.8810 C.ar    1  UNL1        0.0374
     15 C         138.2596  140.4648  164.3647 C.ar    1  UNL1        0.0031
     16 C         137.7431  140.4264  162.9569 C.ar    1  UNL1        0.0016
     17 C         137.9059  141.6217  162.0655 C.ar    1  UNL1        0.0191
     18 C         138.5853  142.8554  162.5818 C.ar    1  UNL1        0.0810
     19 N         138.7481  144.0507  161.6903 N.ar    1  UNL1       -0.2497
     20 C         142.6781  139.8154  169.2251 C.3     1  UNL1        0.0294
     21 C         142.8612  139.0895  167.9253 C.3     1  UNL1        0.0730
     22 N         142.7397  139.8323  166.6278 N.3     1  UNL1       -0.2720
     23 C         142.1216  139.0671  165.4953 C.3     1  UNL1        0.0768
     24 C         141.8634  139.5228  164.0896 C.3     1  UNL1        0.0434
     25 C         142.1596  140.8559  163.4694 C.ar    1  UNL1       -0.0233
     26 C         141.7406  140.8958  162.0296 C.ar    1  UNL1        0.0178
     27 C         141.9491  142.1425  161.2220 C.ar    1  UNL1        0.1179
     28 N         141.6396  142.4760  159.7927 N.ar    1  UNL1       -0.2121
     29 C         142.0758  143.8890  159.5414 C.ar    1  UNL1        0.2062
     30 C         141.9542  144.6317  158.2439 C.3     1  UNL1        0.0950
     31 O         142.6549  144.4288  160.8155 O.2     1  UNL1       -0.4387
     32 C         142.5766  143.3494  161.8541 C.ar    1  UNL1        0.1600
     33 C         142.9956  143.3096  163.2939 C.ar    1  UNL1        0.0101
     34 C         143.6230  144.5165  163.9260 C.3     1  UNL1        0.0339
     35 C         142.7871  142.0629  164.1015 C.ar    1  UNL1       -0.0256
     36 C         143.2733  142.2347  165.5100 C.3     1  UNL1        0.0431
     37 C         143.2522  141.2419  166.6343 C.3     1  UNL1        0.0768
@<TRIPOS>BOND
     1     9    10    1
     2    10    11   ar
     3    11    12   ar
     4    12    13   ar
     5    13    14   ar
     6    14     3    1
     7     3     4   ar
     8     4     5   ar
     9     5     6   ar
    10     6     2    1
    11     2     1    1
    12     1    20    1
    13    20    21    1
    14    21    22    1
    15    22    23    1
    16    23    24    1
    17    24    25    1
    18    25    26   ar
    19    26    27   ar
    20    27    28   ar
    21    28    29   ar
    22    29    30    1
    23    29    31   ar
    24    31    32   ar
    25    32    33   ar
    26    33    34    1
    27    33    35   ar
    28    35    36    1
    29    36    37    1
    30     6     7   ar
    31     7     8    1
    32    14    15   ar
    33    15    16   ar
    34    16    17   ar
    35    17    18   ar
    36    18    19   ar
    37    19    10   ar
    38    18    13   ar
    39     7     3   ar
    40    37    22    1
    41    35    25   ar
    42    32    27   ar
@<TRIPOS>MOLECULE
*****
 37 42 0 0 0
SMALL
GASTEIGER

@<TRIPOS>ATOM
      1 C         139.9071  144.2993  158.2350 C.3     1  UNL1        0.0666
      2 S         139.8259  142.8020  158.2723 S.3     1  UNL1       -0.0756
      3 C         140.3508  141.0276  161.6842 C.ar    1  UNL1        0.1669
      4 N         141.6764  140.7861  161.0249 N.ar    1  UNL1       -0.1282
      5 N         141.6410  141.4214  159.6665 N.ar    1  UNL1       -0.1221
      6 C         140.2937  142.0556  159.4863 C.ar    1  UNL1        0.1932
      7 N         139.4964  141.8122  160.7333 N.ar    1  UNL1       -0.2884
      8 C         138.0911  142.2726  160.9852 C.3     1  UNL1        0.1340
      9 C         143.9862  137.9405  166.6344 C.3     1  UNL1        0.0521
     10 C         142.9772  138.5968  165.7392 C.ar    1  UNL1        0.0593
     11 C         143.3778  139.0587  164.3695 C.ar    1  UNL1        0.0147
     12 C         142.3688  139.7150  163.4744 C.ar    1  UNL1        0.0028
     13 C         140.9592  139.9094  163.9490 C.ar    1  UNL1        0.0206
     14 C         139.9502  140.5657  163.0539 C.ar    1  UNL1        0.0374
     15 C         138.5407  140.7601  163.5285 C.ar    1  UNL1        0.0031
     16 C         138.1401  140.2981  164.8983 C.ar    1  UNL1        0.0016
     17 C         139.1490  139.6419  165.7933 C.ar    1  UNL1        0.0191
     18 C         140.5586  139.4475  165.3187 C.ar    1  UNL1        0.0810
     19 N         141.5676  138.7912  166.2139 N.ar    1  UNL1       -0.2497
     20 C         140.8620  145.0213  159.1390 C.3     1  UNL1        0.0294
     21 C         140.3649  145.6483  160.4078 C.3     1  UNL1        0.0730
     22 N         140.6461  144.9941  161.7280 N.3     1  UNL1       -0.2720
     23 C         139.4913  144.9341  162.6835 C.3     1  UNL1        0.0768
     24 C         139.4501  144.3515  164.0653 C.3     1  UNL1        0.0434
     25 C         140.5532  143.6852  164.8325 C.ar    1  UNL1       -0.0233
     26 C         140.0882  143.2428  166.1883 C.ar    1  UNL1        0.0178
     27 C         141.0401  142.5520  167.1192 C.ar    1  UNL1        0.1179
     28 N         140.8696  142.0066  168.5061 N.ar    1  UNL1       -0.2121
     29 C         142.1812  141.4210  168.9384 C.ar    1  UNL1        0.2062
     30 C         142.4622  140.7668  170.2587 C.3     1  UNL1        0.0950
     31 O         143.1622  141.6046  167.8188 O.2     1  UNL1       -0.4387
     32 C         142.4571  142.3035  166.6945 C.ar    1  UNL1        0.1600
     33 C         142.9221  142.7459  165.3387 C.ar    1  UNL1        0.0101
     34 C         144.3391  142.4975  164.9139 C.3     1  UNL1        0.0339
     35 C         141.9702  143.4367  164.4077 C.ar    1  UNL1       -0.0256
     36 C         142.6340  143.7933  163.1107 C.3     1  UNL1        0.0431
     37 C         142.0446  144.4864  161.9181 C.3     1  UNL1        0.0768
@<TRIPOS>BOND
     1     9    10    1
     2    10    11   ar
     3    11    12   ar
     4    12    13   ar
     5    13    14   ar
     6    14     3    1
     7     3     4   ar
     8     4     5   ar
     9     5     6   ar
    10     6     2    1
    11     2     1    1
    12     1    20    1
    13    20    21    1
    14    21    22    1
    15    22    23    1
    16    23    24    1
    17    24    25    1
    18    25    26   ar
    19    26    27   ar
    20    27    28   ar
    21    28    29   ar
    22    29    30    1
    23    29    31   ar
    24    31    32   ar
    25    32    33   ar
    26    33    34    1
    27    33    35   ar
    28    35    36    1
    29    36    37    1
    30     6     7   ar
    31     7     8    1
    32    14    15   ar
    33    15    16   ar
    34    16    17   ar
    35    17    18   ar
    36    18    19   ar
    37    19    10   ar
    38    18    13   ar
    39     7     3   ar
    40    37    22    1
    41    35    25   ar
    42    32    27   ar
@<TRIPOS>MOLECULE
*****
 37 42 0 0 0
SMALL
GASTEIGER

@<TRIPOS>ATOM
      1 C         140.1518  144.2820  157.2957 C.3     1  UNL1        0.0666
      2 S         139.1552  143.1892  157.5458 S.3     1  UNL1       -0.0756
      3 C         139.5197  140.9783  160.7151 C.ar    1  UNL1        0.1669
      4 N         138.5102  141.9861  161.1792 N.ar    1  UNL1       -0.1282
      5 N         138.2508  142.9369  160.0485 N.ar    1  UNL1       -0.1221
      6 C         139.1000  142.5168  158.8855 C.ar    1  UNL1        0.1932
      7 N         139.8842  141.3064  159.2976 N.ar    1  UNL1       -0.2884
      8 C         140.8614  140.5557  158.4422 C.3     1  UNL1        0.1340
      9 C         137.9503  138.7960  167.0417 C.3     1  UNL1        0.0521
     10 C         138.4798  139.0576  165.6628 C.ar    1  UNL1        0.0593
     11 C         137.9311  140.1938  164.8517 C.ar    1  UNL1        0.0147
     12 C         138.4607  140.4553  163.4729 C.ar    1  UNL1        0.0028
     13 C         139.5389  139.5806  162.9051 C.ar    1  UNL1        0.0206
     14 C         140.0684  139.8421  161.5262 C.ar    1  UNL1        0.0374
     15 C         141.1466  138.9674  160.9585 C.ar    1  UNL1        0.0031
     16 C         141.6952  137.8311  161.7696 C.ar    1  UNL1        0.0016
     17 C         141.1657  137.5696  163.1484 C.ar    1  UNL1        0.0191
     18 C         140.0875  138.4443  163.7162 C.ar    1  UNL1        0.0810
     19 N         139.5580  138.1828  165.0951 N.ar    1  UNL1       -0.2497
     20 C         140.3087  145.3956  158.2885 C.3     1  UNL1        0.0294
     21 C         141.4860  145.4114  159.2178 C.3     1  UNL1        0.0730
     22 N         141.4107  144.6995  160.5359 N.3     1  UNL1       -0.2720
     23 C         142.3505  143.5427  160.7054 C.3     1  UNL1        0.0768
     24 C         142.5173  142.6392  161.8912 C.3     1  UNL1        0.0434
     25 C         141.7855  142.6693  163.2001 C.ar    1  UNL1       -0.0233
     26 C         142.2601  141.5822  164.1183 C.ar    1  UNL1        0.0178
     27 C         141.6552  141.4361  165.4832 C.ar    1  UNL1        0.1179
     28 N         141.9171  140.4683  166.5987 N.ar    1  UNL1       -0.2121
     29 C         140.9997  140.8111  167.7349 C.ar    1  UNL1        0.2062
     30 C         140.9245  140.0990  169.0530 C.3     1  UNL1        0.0950
     31 O         140.1707  141.9908  167.3214 O.2     1  UNL1       -0.4387
     32 C         140.5758  142.3771  165.9299 C.ar    1  UNL1        0.1600
     33 C         140.1013  143.4642  165.0116 C.ar    1  UNL1        0.0101
     34 C         139.0220  144.4052  165.4583 C.3     1  UNL1        0.0339
     35 C         140.7062  143.6103  163.6468 C.ar    1  UNL1       -0.0256
     36 C         140.0920  144.7537  162.8947 C.3     1  UNL1        0.0431
     37 C         140.4056  145.2383  161.5102 C.3     1  UNL1        0.0768
@<TRIPOS>BOND
     1     9    10    1
     2    10    11   ar
     3    11    12   ar
     4    12    13   ar
     5    13    14   ar
     6    14     3    1
     7     3     4   ar
     8     4     5   ar
     9     5     6   ar
    10     6     2    1
    11     2     1    1
    12     1    20    1
    13    20    21    1
    14    21    22    1
    15    22    23    1
    16    23    24    1
    17    24    25    1
    18    25    26   ar
    19    26    27   ar
    20    27    28   ar
    21    28    29   ar
    22    29    30    1
    23    29    31   ar
    24    31    32   ar
    25    32    33   ar
    26    33    34    1
    27    33    35   ar
    28    35    36    1
    29    36    37    1
    30     6     7   ar
    31     7     8    1
    32    14    15   ar
    33    15    16   ar
    34    16    17   ar
    35    17    18   ar
    36    18    19   ar
    37    19    10   ar
    38    18    13   ar
    39     7     3   ar
    40    37    22    1
    41    35    25   ar
    42    32    27   ar
@<TRIPOS>MOLECULE
*****
 37 42 0 0 0
SMALL
GASTEIGER

@<TRIPOS>ATOM
      1 C         141.4869  139.8828  170.3422 C.3     1  UNL1        0.0666
      2 S         140.0732  140.2534  170.0042 S.3     1  UNL1       -0.0756
      3 C         139.2501  141.3250  166.3656 C.ar    1  UNL1        0.1669
      4 N         138.7852  139.8988  166.3600 N.ar    1  UNL1       -0.1282
      5 N         139.0370  139.3239  167.7223 N.ar    1  UNL1       -0.1221
      6 C         139.6575  140.3947  168.5699 C.ar    1  UNL1        0.1932
      7 N         139.7892  141.6313  167.7314 N.ar    1  UNL1       -0.2884
      8 C         140.3599  142.9441  168.1800 C.3     1  UNL1        0.1340
      9 C         137.7417  140.2669  159.7432 C.3     1  UNL1        0.0521
     10 C         138.1031  140.7695  161.1096 C.ar    1  UNL1        0.0593
     11 C         138.1662  139.8170  162.2667 C.ar    1  UNL1        0.0147
     12 C         138.5275  140.3197  163.6329 C.ar    1  UNL1        0.0028
     13 C         138.8257  141.7748  163.8422 C.ar    1  UNL1        0.0206
     14 C         139.1870  142.2774  165.2086 C.ar    1  UNL1        0.0374
     15 C         139.4853  143.7325  165.4177 C.ar    1  UNL1        0.0031
     16 C         139.4222  144.6849  164.2606 C.ar    1  UNL1        0.0016
     17 C         139.0609  144.1823  162.8944 C.ar    1  UNL1        0.0191
     18 C         138.7626  142.7273  162.6851 C.ar    1  UNL1        0.0810
     19 N         138.4013  142.2247  161.3188 N.ar    1  UNL1       -0.2497
     20 C         142.5974  140.2152  169.3902 C.3     1  UNL1        0.0294
     21 C         142.7770  139.4106  168.1371 C.3     1  UNL1        0.0730
     22 N         142.6865  140.0788  166.7972 N.3     1  UNL1       -0.2720
     23 C         142.2517  139.2017  165.6606 C.3     1  UNL1        0.0768
     24 C         142.0657  139.5650  164.2171 C.3     1  UNL1        0.0434
     25 C         142.2686  140.8949  163.5539 C.ar    1  UNL1       -0.0233
     26 C         141.9707  140.8260  162.0853 C.ar    1  UNL1        0.0178
     27 C         142.1118  142.0523  161.2331 C.ar    1  UNL1        0.1179
     28 N         141.8901  142.2876  159.7684 N.ar    1  UNL1       -0.2121
     29 C         142.1920  143.7282  159.4794 C.ar    1  UNL1        0.2062
     30 C         142.1014  144.3963  158.1394 C.3     1  UNL1        0.0950
     31 O         142.6003  144.3832  160.7654 O.2     1  UNL1       -0.4387
     32 C         142.5508  143.3475  161.8493 C.ar    1  UNL1        0.1600
     33 C         142.8486  143.4164  163.3178 C.ar    1  UNL1        0.0101
     34 C         143.2876  144.7116  163.9341 C.3     1  UNL1        0.0339
     35 C         142.7076  142.1902  164.1701 C.ar    1  UNL1       -0.0256
     36 C         143.0521  142.4753  165.6019 C.3     1  UNL1        0.0431
     37 C         143.0426  141.5356  166.7710 C.3     1  UNL1        0.0768
@<TRIPOS>BOND
     1     9    10    1
     2    10    11   ar
     3    11    12   ar
     4    12    13   ar
     5    13    14   ar
     6    14     3    1
     7     3     4   ar
     8     4     5   ar
     9     5     6   ar
    10     6     2    1
    11     2     1    1
    12     1    20    1
    13    20    21    1
    14    21    22    1
    15    22    23    1
    16    23    24    1
    17    24    25    1
    18    25    26   ar
    19    26    27   ar
    20    27    28   ar
    21    28    29   ar
    22    29    30    1
    23    29    31   ar
    24    31    32   ar
    25    32    33   ar
    26    33    34    1
    27    33    35   ar
    28    35    36    1
    29    36    37    1
    30     6     7   ar
    31     7     8    1
    32    14    15   ar
    33    15    16   ar
    34    16    17   ar
    35    17    18   ar
    36    18    19   ar
    37    19    10   ar
    38    18    13   ar
    39     7     3   ar
    40    37    22    1
    41    35    25   ar
    42    32    27   ar
@<TRIPOS>MOLECULE
*****
 37 42 0 0 0
SMALL
GASTEIGER

@<TRIPOS>ATOM
      1 C         140.5068  140.0113  170.7274 C.3     1  UNL1        0.0666
      2 S         139.2455  140.2197  169.9428 S.3     1  UNL1       -0.0756
      3 C         139.6432  141.2480  166.2212 C.ar    1  UNL1        0.1669
      4 N         139.1436  139.8405  166.0813 N.ar    1  UNL1       -0.1282
      5 N         138.9339  139.2840  167.4584 N.ar    1  UNL1       -0.1221
      6 C         139.3038  140.3476  168.4494 C.ar    1  UNL1        0.1932
      7 N         139.7421  141.5613  167.6848 N.ar    1  UNL1       -0.2884
      8 C         140.1992  142.8604  168.2794 C.3     1  UNL1        0.1340
      9 C         140.6530  140.0367  159.5307 C.3     1  UNL1        0.0521
     10 C         140.4857  140.5721  160.9219 C.ar    1  UNL1        0.0593
     11 C         140.1450  139.6415  162.0478 C.ar    1  UNL1        0.0147
     12 C         139.9777  140.1770  163.4389 C.ar    1  UNL1        0.0028
     13 C         140.1512  141.6431  163.7042 C.ar    1  UNL1        0.0206
     14 C         139.9839  142.1786  165.0953 C.ar    1  UNL1        0.0374
     15 C         140.1574  143.6447  165.3604 C.ar    1  UNL1        0.0031
     16 C         140.4981  144.5754  164.2345 C.ar    1  UNL1        0.0016
     17 C         140.6654  144.0400  162.8434 C.ar    1  UNL1        0.0191
     18 C         140.4919  142.5738  162.5782 C.ar    1  UNL1        0.0810
     19 N         140.6592  142.0384  161.1870 N.ar    1  UNL1       -0.2497
     20 C         141.7382  139.4941  170.0443 C.3     1  UNL1        0.0294
     21 C         142.8234  140.4447  169.6340 C.3     1  UNL1        0.0730
     22 N         143.0638  140.7263  168.1804 N.3     1  UNL1       -0.2720
     23 C         143.3354  142.1597  167.8314 C.3     1  UNL1        0.0768
     24 C         143.6111  142.7580  166.4837 C.3     1  UNL1        0.0434
     25 C         143.6833  142.0709  165.1525 C.ar    1  UNL1       -0.0233
     26 C         143.9843  143.0424  164.0499 C.ar    1  UNL1        0.0178
     27 C         144.0997  142.5586  162.6347 C.ar    1  UNL1        0.1179
     28 N         144.3857  143.2761  161.3489 N.ar    1  UNL1       -0.2121
     29 C         144.3768  142.2643  160.2416 C.ar    1  UNL1        0.2062
     30 C         144.6172  142.5459  158.7880 C.3     1  UNL1        0.0950
     31 O         144.0854  140.9215  160.8431 O.2     1  UNL1       -0.4387
     32 C         143.9141  141.1034  162.3220 C.ar    1  UNL1        0.1600
     33 C         143.6131  140.1318  163.4246 C.ar    1  UNL1        0.0101
     34 C         143.4274  138.6766  163.1120 C.3     1  UNL1        0.0339
     35 C         143.4977  140.6156  164.8398 C.ar    1  UNL1       -0.0256
     36 C         143.1940  139.4881  165.7813 C.3     1  UNL1        0.0431
     37 C         143.0009  139.5374  167.2680 C.3     1  UNL1        0.0768
@<TRIPOS>BOND
     1     9    10    1
     2    10    11   ar
     3    11    12   ar
     4    12    13   ar
     5    13    14   ar
     6    14     3    1
     7     3     4   ar
     8     4     5   ar
     9     5     6   ar
    10     6     2    1
    11     2     1    1
    12     1    20    1
    13    20    21    1
    14    21    22    1
    15    22    23    1
    16    23    24    1
    17    24    25    1
    18    25    26   ar
    19    26    27   ar
    20    27    28   ar
    21    28    29   ar
    22    29    30    1
    23    29    31   ar
    24    31    32   ar
    25    32    33   ar
    26    33    34    1
    27    33    35   ar
    28    35    36    1
    29    36    37    1
    30     6     7   ar
    31     7     8    1
    32    14    15   ar
    33    15    16   ar
    34    16    17   ar
    35    17    18   ar
    36    18    19   ar
    37    19    10   ar
    38    18    13   ar
    39     7     3   ar
    40    37    22    1
    41    35    25   ar
    42    32    27   ar
@<TRIPOS>MOLECULE
*****
 37 42 0 0 0
SMALL
GASTEIGER

@<TRIPOS>ATOM
      1 C         144.6772  138.7868  165.6471 C.3     1  UNL1        0.0666
      2 S         143.2891  138.3700  166.0336 S.3     1  UNL1       -0.0756
      3 C         140.3407  140.0568  164.1554 C.ar    1  UNL1        0.1669
      4 N         140.3123  138.6793  163.5621 N.ar    1  UNL1       -0.1282
      5 N         141.4132  137.8799  164.1934 N.ar    1  UNL1       -0.1221
      6 C         142.1222  138.7631  165.1770 C.ar    1  UNL1        0.1932
      7 N         141.4593  140.1084  165.1534 N.ar    1  UNL1       -0.2884
      8 C         141.8469  141.2970  165.9824 C.3     1  UNL1        0.1340
      9 C         138.6185  142.7714  158.0796 C.3     1  UNL1        0.0521
     10 C         138.8173  142.3746  159.5125 C.ar    1  UNL1        0.0593
     11 C         139.7446  141.2470  159.8568 C.ar    1  UNL1        0.0147
     12 C         139.9433  140.8503  161.2896 C.ar    1  UNL1        0.0028
     13 C         139.2147  141.5811  162.3782 C.ar    1  UNL1        0.0206
     14 C         139.4134  141.1843  163.8111 C.ar    1  UNL1        0.0374
     15 C         138.6848  141.9152  164.8996 C.ar    1  UNL1        0.0031
     16 C         137.7575  143.0429  164.5553 C.ar    1  UNL1        0.0016
     17 C         137.5588  143.4396  163.1226 C.ar    1  UNL1        0.0191
     18 C         138.2874  142.7087  162.0340 C.ar    1  UNL1        0.0810
     19 N         138.0886  143.1055  160.6011 N.ar    1  UNL1       -0.2497
     20 C         144.9246  139.4234  164.3116 C.3     1  UNL1        0.0294
     21 C         145.1154  140.9079  164.2122 C.3     1  UNL1        0.0730
     22 N         144.3765  141.6908  163.1677 N.3     1  UNL1       -0.2720
     23 C         144.7560  141.3991  161.7460 C.3     1  UNL1        0.0768
     24 C         144.2085  142.0065  160.4885 C.3     1  UNL1        0.0434
     25 C         143.1464  143.0554  160.3420 C.ar    1  UNL1       -0.0233
     26 C         142.8950  143.3831  158.8999 C.ar    1  UNL1        0.0178
     27 C         141.8666  144.4114  158.5327 C.ar    1  UNL1        0.1179
     28 N         141.4039  144.9395  157.2072 N.ar    1  UNL1       -0.2121
     29 C         140.3410  145.9666  157.4628 C.ar    1  UNL1        0.2062
     30 C         139.6022  146.7495  156.4181 C.3     1  UNL1        0.0950
     31 O         140.1468  146.0733  158.9462 O.2     1  UNL1       -0.4387
     32 C         141.0896  145.1122  159.6075 C.ar    1  UNL1        0.1600
     33 C         141.3410  144.7846  161.0496 C.ar    1  UNL1        0.0101
     34 C         140.5641  145.4853  162.1244 C.3     1  UNL1        0.0339
     35 C         142.3694  143.7562  161.4168 C.ar    1  UNL1       -0.0256
     36 C         142.4626  143.5810  162.9036 C.3     1  UNL1        0.0431
     37 C         143.3559  142.6618  163.6828 C.3     1  UNL1        0.0768
@<TRIPOS>BOND
     1     9    10    1
     2    10    11   ar
     3    11    12   ar
     4    12    13   ar
     5    13    14   ar
     6    14     3    1
     7     3     4   ar
     8     4     5   ar
     9     5     6   ar
    10     6     2    1
    11     2     1    1
    12     1    20    1
    13    20    21    1
    14    21    22    1
    15    22    23    1
    16    23    24    1
    17    24    25    1
    18    25    26   ar
    19    26    27   ar
    20    27    28   ar
    21    28    29   ar
    22    29    30    1
    23    29    31   ar
    24    31    32   ar
    25    32    33   ar
    26    33    34    1
    27    33    35   ar
    28    35    36    1
    29    36    37    1
    30     6     7   ar
    31     7     8    1
    32    14    15   ar
    33    15    16   ar
    34    16    17   ar
    35    17    18   ar
    36    18    19   ar
    37    19    10   ar
    38    18    13   ar
    39     7     3   ar
    40    37    22    1
    41    35    25   ar
    42    32    27   ar
@<TRIPOS>MOLECULE
*****
 37 42 0 0 0
SMALL
GASTEIGER

@<TRIPOS>ATOM
      1 C         138.3337  141.1543  159.2165 C.3     1  UNL1        0.0666
      2 S         138.3348  142.4979  159.8833 S.3     1  UNL1       -0.0756
      3 C         140.5004  142.7168  163.0970 C.ar    1  UNL1        0.1669
      4 N         139.1457  143.0703  163.6356 N.ar    1  UNL1       -0.1282
      5 N         138.1697  143.0313  162.4973 N.ar    1  UNL1       -0.1221
      6 C         138.9210  142.6537  161.2552 C.ar    1  UNL1        0.1932
      7 N         140.3614  142.4594  161.6258 N.ar    1  UNL1       -0.2884
      8 C         141.4686  142.0751  160.6896 C.3     1  UNL1        0.1340
      9 C         141.6045  143.0597  169.8730 C.3     1  UNL1        0.0521
     10 C         141.6460  142.9536  168.3773 C.ar    1  UNL1        0.0593
     11 C         140.3756  143.0352  167.5840 C.ar    1  UNL1        0.0147
     12 C         140.4172  142.9291  166.0883 C.ar    1  UNL1        0.0028
     13 C         141.7292  142.7413  165.3859 C.ar    1  UNL1        0.0206
     14 C         141.7707  142.6352  163.8902 C.ar    1  UNL1        0.0374
     15 C         143.0828  142.4474  163.1880 C.ar    1  UNL1        0.0031
     16 C         144.3532  142.3657  163.9812 C.ar    1  UNL1        0.0016
     17 C         144.3117  142.4718  165.4768 C.ar    1  UNL1        0.0191
     18 C         142.9997  142.6596  166.1792 C.ar    1  UNL1        0.0810
     19 N         142.9581  142.7658  167.6749 N.ar    1  UNL1       -0.2497
     20 C         137.8381  139.9488  159.9591 C.3     1  UNL1        0.0294
     21 C         138.8111  138.9192  160.4520 C.3     1  UNL1        0.0730
     22 N         139.3610  139.0129  161.8444 N.3     1  UNL1       -0.2720
     23 C         138.3539  139.2707  162.9258 C.3     1  UNL1        0.0768
     24 C         138.5824  139.4157  164.4013 C.3     1  UNL1        0.0434
     25 C         139.8742  139.3386  165.1596 C.ar    1  UNL1       -0.0233
     26 C         139.6591  139.5403  166.6304 C.ar    1  UNL1        0.0178
     27 C         140.8265  139.5009  167.5715 C.ar    1  UNL1        0.1179
     28 N         140.9222  139.6645  169.0594 N.ar    1  UNL1       -0.2121
     29 C         142.3639  139.5245  169.4493 C.ar    1  UNL1        0.2062
     30 C         142.9137  139.6182  170.8418 C.3     1  UNL1        0.0950
     31 O         143.1591  139.2744  168.2024 O.2     1  UNL1       -0.4387
     32 C         142.2090  139.2598  167.0418 C.ar    1  UNL1        0.1600
     33 C         142.4241  139.0582  165.5710 C.ar    1  UNL1        0.0101
     34 C         143.8066  138.8171  165.0414 C.3     1  UNL1        0.0339
     35 C         141.2567  139.0976  164.6300 C.ar    1  UNL1       -0.0256
     36 C         141.6888  138.8740  163.2111 C.3     1  UNL1        0.0431
     37 C         140.8451  138.8364  161.9714 C.3     1  UNL1        0.0768
@<TRIPOS>BOND
     1     9    10    1
     2    10    11   ar
     3    11    12   ar
     4    12    13   ar
     5    13    14   ar
     6    14     3    1
     7     3     4   ar
     8     4     5   ar
     9     5     6   ar
    10     6     2    1
    11     2     1    1
    12     1    20    1
    13    20    21    1
    14    21    22    1
    15    22    23    1
    16    23    24    1
    17    24    25    1
    18    25    26   ar
    19    26    27   ar
    20    27    28   ar
    21    28    29   ar
    22    29    30    1
    23    29    31   ar
    24    31    32   ar
    25    32    33   ar
    26    33    34    1
    27    33    35   ar
    28    35    36    1
    29    36    37    1
    30     6     7   ar
    31     7     8    1
    32    14    15   ar
    33    15    16   ar
    34    16    17   ar
    35    17    18   ar
    36    18    19   ar
    37    19    10   ar
    38    18    13   ar
    39     7     3   ar
    40    37    22    1
    41    35    25   ar
    42    32    27   ar
@<TRIPOS>MOLECULE
*****
 37 42 0 0 0
SMALL
GASTEIGER

@<TRIPOS>ATOM
      1 C         139.5137  141.3569  157.4928 C.3     1  UNL1        0.0666
      2 S         140.8013  142.1109  157.6460 S.3     1  UNL1       -0.0756
      3 C         142.7389  142.1357  161.0092 C.ar    1  UNL1        0.1669
      4 N         143.2764  140.8875  160.3742 N.ar    1  UNL1       -0.1282
      5 N         142.6160  140.7264  159.0371 N.ar    1  UNL1       -0.1221
      6 C         141.6703  141.8749  158.8457 C.ar    1  UNL1        0.1932
      7 N         141.7463  142.7458  160.0645 N.ar    1  UNL1       -0.2884
      8 C         140.9665  144.0059  160.2978 C.3     1  UNL1        0.1340
      9 C         142.8326  139.1624  167.2061 C.3     1  UNL1        0.0521
     10 C         142.9059  140.0414  165.9928 C.ar    1  UNL1        0.0593
     11 C         142.5188  139.4987  164.6490 C.ar    1  UNL1        0.0147
     12 C         142.5922  140.3777  163.4358 C.ar    1  UNL1        0.0028
     13 C         143.0526  141.7993  163.5662 C.ar    1  UNL1        0.0206
     14 C         143.1259  142.6783  162.3529 C.ar    1  UNL1        0.0374
     15 C         143.5864  144.0999  162.4835 C.ar    1  UNL1        0.0031
     16 C         143.9735  144.6425  163.8272 C.ar    1  UNL1        0.0016
     17 C         143.9001  143.7636  165.0404 C.ar    1  UNL1        0.0191
     18 C         143.4397  142.3420  164.9100 C.ar    1  UNL1        0.0810
     19 N         143.3664  141.4630  166.1233 N.ar    1  UNL1       -0.2497
     20 C         138.4067  141.5537  158.4858 C.3     1  UNL1        0.0294
     21 C         137.9742  140.4157  159.3621 C.3     1  UNL1        0.0730
     22 N         138.2675  140.4482  160.8328 N.3     1  UNL1       -0.2720
     23 C         138.0529  139.1582  161.5678 C.3     1  UNL1        0.0768
     24 C         138.2544  138.8678  163.0256 C.3     1  UNL1        0.0434
     25 C         138.7201  139.7954  164.1083 C.ar    1  UNL1       -0.0233
     26 C         138.7843  139.0999  165.4358 C.ar    1  UNL1        0.0178
     27 C         139.2279  139.8516  166.6557 C.ar    1  UNL1        0.1179
     28 N         139.3896  139.4352  168.0876 N.ar    1  UNL1       -0.2121
     29 C         139.8688  140.6251  168.8651 C.ar    1  UNL1        0.2062
     30 C         140.1620  140.6575  170.3358 C.3     1  UNL1        0.0950
     31 O         140.0033  141.7769  167.9137 O.2     1  UNL1       -0.4387
     32 C         139.6072  141.2989  166.5482 C.ar    1  UNL1        0.1600
     33 C         139.5430  141.9944  165.2207 C.ar    1  UNL1        0.0101
     34 C         139.9222  143.4416  165.1132 C.3     1  UNL1        0.0339
     35 C         139.0994  141.2427  164.0008 C.ar    1  UNL1       -0.0256
     36 C         139.1066  142.1197  162.7840 C.3     1  UNL1        0.0431
     37 C         138.7364  141.7660  161.3741 C.3     1  UNL1        0.0768
@<TRIPOS>BOND
     1     9    10    1
     2    10    11   ar
     3    11    12   ar
     4    12    13   ar
     5    13    14   ar
     6    14     3    1
     7     3     4   ar
     8     4     5   ar
     9     5     6   ar
    10     6     2    1
    11     2     1    1
    12     1    20    1
    13    20    21    1
    14    21    22    1
    15    22    23    1
    16    23    24    1
    17    24    25    1
    18    25    26   ar
    19    26    27   ar
    20    27    28   ar
    21    28    29   ar
    22    29    30    1
    23    29    31   ar
    24    31    32   ar
    25    32    33   ar
    26    33    34    1
    27    33    35   ar
    28    35    36    1
    29    36    37    1
    30     6     7   ar
    31     7     8    1
    32    14    15   ar
    33    15    16   ar
    34    16    17   ar
    35    17    18   ar
    36    18    19   ar
    37    19    10   ar
    38    18    13   ar
    39     7     3   ar
    40    37    22    1
    41    35    25   ar
    42    32    27   ar
@<TRIPOS>MOLECULE
*****
 37 42 0 0 0
SMALL
GASTEIGER

@<TRIPOS>ATOM
      1 C         141.1009  139.5128  169.7257 C.3     1  UNL1        0.0666
      2 S         142.5206  139.5269  169.2419 S.3     1  UNL1       -0.0756
      3 C         143.3016  141.0472  165.7570 C.ar    1  UNL1        0.1669
      4 N         143.2611  139.5833  165.4322 N.ar    1  UNL1       -0.1282
      5 N         142.9637  138.8357  166.6981 N.ar    1  UNL1       -0.1221
      6 C         142.8202  139.8375  167.8053 C.ar    1  UNL1        0.1932
      7 N         143.0291  141.2042  167.2237 N.ar    1  UNL1       -0.2884
      8 C         142.9749  142.5005  167.9766 C.3     1  UNL1        0.1340
      9 C         143.9341  140.9875  158.9126 C.3     1  UNL1        0.0521
     10 C         143.8425  141.2803  160.3809 C.ar    1  UNL1        0.0593
     11 C         143.5763  140.1686  161.3522 C.ar    1  UNL1        0.0147
     12 C         143.4847  140.4615  162.8204 C.ar    1  UNL1        0.0028
     13 C         143.6593  141.8660  163.3175 C.ar    1  UNL1        0.0206
     14 C         143.5677  142.1588  164.7858 C.ar    1  UNL1        0.0374
     15 C         143.7423  143.5633  165.2827 C.ar    1  UNL1        0.0031
     16 C         144.0085  144.6749  164.3114 C.ar    1  UNL1        0.0016
     17 C         144.1001  144.3821  162.8432 C.ar    1  UNL1        0.0191
     18 C         143.9255  142.9776  162.3462 C.ar    1  UNL1        0.0810
     19 N         144.0171  142.6848  160.8778 N.ar    1  UNL1       -0.2497
     20 C         140.0693  140.3662  169.0490 C.3     1  UNL1        0.0294
     21 C         139.4309  139.9016  167.7737 C.3     1  UNL1        0.0730
     22 N         139.6339  140.6786  166.5069 N.3     1  UNL1       -0.2720
     23 C         139.8172  142.1582  166.6732 C.3     1  UNL1        0.0768
     24 C         140.0387  143.1979  165.6149 C.3     1  UNL1        0.0434
     25 C         140.1314  143.0150  164.1291 C.ar    1  UNL1       -0.0233
     26 C         140.3601  144.3220  163.4293 C.ar    1  UNL1        0.0178
     27 C         140.4830  144.3611  161.9348 C.ar    1  UNL1        0.1179
     28 N         140.7088  145.4919  160.9756 N.ar    1  UNL1       -0.2121
     29 C         140.7425  144.9230  159.5880 C.ar    1  UNL1        0.2062
     30 C         140.9455  145.7001  158.3212 C.3     1  UNL1        0.0950
     31 O         140.5377  143.4406  159.6898 O.2     1  UNL1       -0.4387
     32 C         140.3773  143.0933  161.1401 C.ar    1  UNL1        0.1600
     33 C         140.1486  141.7863  161.8399 C.ar    1  UNL1        0.0101
     34 C         140.0429  140.5186  161.0453 C.3     1  UNL1        0.0339
     35 C         140.0257  141.7472  163.3344 C.ar    1  UNL1       -0.0256
     36 C         139.8011  140.3492  163.8294 C.3     1  UNL1        0.0431
     37 C         139.6267  139.8737  165.2413 C.3     1  UNL1        0.0768
@<TRIPOS>BOND
     1     9    10    1
     2    10    11   ar
     3    11    12   ar
     4    12    13   ar
     5    13    14   ar
     6    14     3    1
     7     3     4   ar
     8     4     5   ar
     9     5     6   ar
    10     6     2    1
    11     2     1    1
    12     1    20    1
    13    20    21    1
    14    21    22    1
    15    22    23    1
    16    23    24    1
    17    24    25    1
    18    25    26   ar
    19    26    27   ar
    20    27    28   ar
    21    28    29   ar
    22    29    30    1
    23    29    31   ar
    24    31    32   ar
    25    32    33   ar
    26    33    34    1
    27    33    35   ar
    28    35    36    1
    29    36    37    1
    30     6     7   ar
    31     7     8    1
    32    14    15   ar
    33    15    16   ar
    34    16    17   ar
    35    17    18   ar
    36    18    19   ar
    37    19    10   ar
    38    18    13   ar
    39     7     3   ar
    40    37    22    1
    41    35    25   ar
    42    32    27   ar
