@<TRIPOS>MOLECULE
*****
 37 41 0 0 0
SMALL
GASTEIGER

@<TRIPOS>ATOM
      1 C         140.1461  138.5395  161.8574 C.ar    1  UNL1        0.0537
      2 C         139.2295  139.6668  162.2303 C.ar    1  UNL1        0.0047
      3 C         138.7829  139.8310  163.6529 C.ar    1  UNL1        0.0047
      4 C         139.2529  138.8679  164.7024 C.ar    1  UNL1        0.0536
      5 C         140.1695  137.7406  164.3295 C.ar    1  UNL1        0.0047
      6 C         140.6161  137.5764  162.9069 C.ar    1  UNL1        0.0047
      7 C         138.8063  139.0322  166.1249 C.2     1  UNL1        0.2490
      8 O         137.4946  138.4569  166.5704 O.2     1  UNL1       -0.2699
      9 N         139.6714  139.7718  167.1020 N.am    1  UNL1       -0.2760
     10 C         139.2248  139.9361  168.5245 C.3     1  UNL1        0.0950
     11 C         140.0900  140.6757  169.5015 C.3     1  UNL1        0.0360
     12 C         141.4017  141.2509  169.0560 C.3     1  UNL1        0.0452
     13 C         142.7315  141.8776  168.7578 C.3     1  UNL1        0.0160
     14 C         143.2405  142.5076  170.0203 C.3     1  UNL1        0.0184
     15 C         142.2254  142.2704  171.0988 C.3     1  UNL1        0.0685
     16 N         141.0889  141.4937  170.5028 N.3     1  UNL1       -0.2994
     17 C         141.8482  141.0866  167.6335 C.3     1  UNL1        0.0360
     18 C         140.9831  140.3470  166.6565 C.3     1  UNL1        0.0950
     19 H         140.2238  142.0278  170.5851 H       1  UNL1        0.1232
     20 N         142.0497  138.2054  160.1210 N.am    1  UNL1       -0.2794
     21 C         140.5928  138.3752  160.4348 C.2     1  UNL1        0.2495
     22 O         139.5824  138.3808  159.3262 O.2     1  UNL1       -0.2698
     23 H         142.7128  138.2017  160.8486 H       1  UNL1        0.1552
     24 N         142.7415  140.6182  158.4778 N.pl3   1  UNL1       -0.3560
     25 C         142.8421  139.2475  157.8768 C.ar    1  UNL1        0.0552
     26 C         143.2887  139.0832  156.4543 C.ar    1  UNL1        0.0154
     27 C         143.3893  137.7125  155.8534 C.ar    1  UNL1        0.0018
     28 C         143.0434  136.5062  156.6750 C.ar    1  UNL1        0.0073
     29 C         142.5968  136.6704  158.0975 C.ar    1  UNL1        0.0164
     30 C         142.4962  138.0411  158.6984 C.ar    1  UNL1        0.0636
     31 H         142.9685  141.4099  157.9385 H       1  UNL1        0.1424
     32 H         142.4484  140.7260  159.4114 H       1  UNL1        0.1424
     33 C         143.1440  135.1354  156.0741 C.ar    1  UNL1        0.0295
     34 C         142.6816  134.7374  154.7037 C.ar    1  UNL1        0.0070
     35 C         142.9765  133.2781  154.5207 C.ar    1  UNL1        0.0075
     36 C         143.6211  132.7742  155.7779 C.ar    1  UNL1        0.0354
     37 S         143.7247  133.9221  156.7380 S.2     1  UNL1       -0.0864
@<TRIPOS>BOND
     1    24    25    1
     2    25    26   ar
     3    26    27   ar
     4    27    28   ar
     5    28    33    1
     6    33    34   ar
     7    34    35   ar
     8    35    36   ar
     9    36    37   ar
    10    28    29   ar
    11    29    30   ar
    12    30    20    1
    13    20    21   am
    14    21    22    2
    15    21     1    1
    16     1     2   ar
    17     2     3   ar
    18     3     4   ar
    19     4     7    1
    20     7     8    2
    21     7     9   am
    22     9    10    1
    23    10    11    1
    24    11    12    1
    25    12    13    1
    26    13    14    1
    27    14    15    1
    28    15    16    1
    29    12    17    1
    30    17    18    1
    31     4     5   ar
    32     5     6   ar
    33    30    25   ar
    34     6     1   ar
    35    37    33   ar
    36    18     9    1
    37    16    12    1
    38    24    31    1
    39    24    32    1
    40    20    23    1
    41    16    19    1
@<TRIPOS>MOLECULE
*****
 37 41 0 0 0
SMALL
GASTEIGER

@<TRIPOS>ATOM
      1 C         143.7084  139.7456  161.7577 C.ar    1  UNL1        0.0537
      2 C         144.7313  140.2980  162.7056 C.ar    1  UNL1        0.0047
      3 C         144.6671  139.9514  164.1636 C.ar    1  UNL1        0.0047
      4 C         143.5800  139.0525  164.6736 C.ar    1  UNL1        0.0536
      5 C         142.5571  138.5001  163.7257 C.ar    1  UNL1        0.0047
      6 C         142.6213  138.8467  162.2677 C.ar    1  UNL1        0.0047
      7 C         143.5159  138.7060  166.1316 C.2     1  UNL1        0.2490
      8 O         144.1518  137.4425  166.6310 O.2     1  UNL1       -0.2699
      9 N         142.8158  139.6229  167.0904 N.am    1  UNL1       -0.2760
     10 C         142.7516  139.2764  168.5484 C.3     1  UNL1        0.0950
     11 C         142.0515  140.1934  169.5070 C.3     1  UNL1        0.0360
     12 C         141.4155  141.4568  169.0077 C.3     1  UNL1        0.0452
     13 C         140.7370  142.7477  168.6569 C.3     1  UNL1        0.0160
     14 C         140.1731  143.3325  169.9179 C.3     1  UNL1        0.0184
     15 C         140.5033  142.4031  171.0480 C.3     1  UNL1        0.0685
     16 N         141.2711  141.2438  170.4854 N.3     1  UNL1       -0.2994
     17 C         141.4797  141.8033  167.5497 C.3     1  UNL1        0.0360
     18 C         142.1798  140.8863  166.5910 C.3     1  UNL1        0.0950
     19 H         140.7659  140.3755  170.6623 H       1  UNL1        0.1232
     20 N         143.8075  141.5292  159.8710 N.am    1  UNL1       -0.2794
     21 C         143.7725  140.0922  160.2996 C.2     1  UNL1        0.2495
     22 O         143.8017  139.0016  159.2702 O.2     1  UNL1       -0.2698
     23 H         143.7884  142.2450  160.5466 H       1  UNL1        0.1552
     24 N         141.3282  142.4054  158.4269 N.pl3   1  UNL1       -0.3560
     25 C         142.6320  142.3137  157.6909 C.ar    1  UNL1        0.0552
     26 C         142.6961  142.6601  156.2329 C.ar    1  UNL1        0.0154
     27 C         143.9999  142.5684  155.4969 C.ar    1  UNL1        0.0018
     28 C         145.2395  142.1303  156.2189 C.ar    1  UNL1        0.0073
     29 C         145.1754  141.7839  157.6769 C.ar    1  UNL1        0.0164
     30 C         143.8716  141.8756  158.4129 C.ar    1  UNL1        0.0636
     31 H         140.5146  142.6930  157.9531 H       1  UNL1        0.1424
     32 H         141.2861  142.1781  159.3839 H       1  UNL1        0.1424
     33 C         146.5434  142.0385  155.4829 C.ar    1  UNL1        0.0295
     34 C         147.9090  142.1770  156.0879 C.ar    1  UNL1        0.0070
     35 C         148.9201  142.0163  154.9917 C.ar    1  UNL1        0.0075
     36 C         148.1795  141.7785  153.7092 C.ar    1  UNL1        0.0354
     37 S         146.7106  141.7922  154.0127 S.2     1  UNL1       -0.0864
@<TRIPOS>BOND
     1    24    25    1
     2    25    26   ar
     3    26    27   ar
     4    27    28   ar
     5    28    33    1
     6    33    34   ar
     7    34    35   ar
     8    35    36   ar
     9    36    37   ar
    10    28    29   ar
    11    29    30   ar
    12    30    20    1
    13    20    21   am
    14    21    22    2
    15    21     1    1
    16     1     2   ar
    17     2     3   ar
    18     3     4   ar
    19     4     7    1
    20     7     8    2
    21     7     9   am
    22     9    10    1
    23    10    11    1
    24    11    12    1
    25    12    13    1
    26    13    14    1
    27    14    15    1
    28    15    16    1
    29    12    17    1
    30    17    18    1
    31     4     5   ar
    32     5     6   ar
    33    30    25   ar
    34     6     1   ar
    35    37    33   ar
    36    18     9    1
    37    16    12    1
    38    24    31    1
    39    24    32    1
    40    20    23    1
    41    16    19    1
@<TRIPOS>MOLECULE
*****
 37 41 0 0 0
SMALL
GASTEIGER

@<TRIPOS>ATOM
      1 C         142.4180  138.4055  162.0228 C.ar    1  UNL1        0.0537
      2 C         141.5228  137.6423  162.9535 C.ar    1  UNL1        0.0047
      3 C         141.8301  137.5974  164.4210 C.ar    1  UNL1        0.0047
      4 C         143.0325  138.3159  164.9578 C.ar    1  UNL1        0.0536
      5 C         143.9276  139.0791  164.0271 C.ar    1  UNL1        0.0047
      6 C         143.6203  139.1240  162.5596 C.ar    1  UNL1        0.0047
      7 C         143.3396  138.2710  166.4253 C.2     1  UNL1        0.2490
      8 O         144.3173  137.2650  166.9565 O.2     1  UNL1       -0.2699
      9 N         142.6691  139.2321  167.3617 N.am    1  UNL1       -0.2760
     10 C         142.9762  139.1872  168.8292 C.3     1  UNL1        0.0950
     11 C         142.3056  140.1483  169.7655 C.3     1  UNL1        0.0360
     12 C         141.3279  141.1542  169.2342 C.3     1  UNL1        0.0452
     13 C         140.3337  142.2100  168.8510 C.3     1  UNL1        0.0160
     14 C         139.9252  142.9365  170.0981 C.3     1  UNL1        0.0184
     15 C         140.6670  142.3298  171.2521 C.3     1  UNL1        0.0685
     16 N         141.5340  141.2283  170.7182 N.3     1  UNL1       -0.2994
     17 C         141.0208  141.1991  167.7667 C.3     1  UNL1        0.0360
     18 C         141.6914  140.2380  166.8304 C.3     1  UNL1        0.0950
     19 H         141.2715  140.3417  171.1488 H       1  UNL1        0.1232
     20 N         143.2242  138.3724  159.5531 N.am    1  UNL1       -0.2794
     21 C         142.1108  138.4505  160.5552 C.2     1  UNL1        0.2495
     22 O         140.6901  138.5734  160.0898 O.2     1  UNL1       -0.2698
     23 H         144.1566  138.2918  159.8586 H       1  UNL1        0.1552
     24 N         143.0354  141.0122  158.1402 N.pl3   1  UNL1       -0.3560
     25 C         142.8225  139.7372  157.3792 C.ar    1  UNL1        0.0552
     26 C         142.5153  139.7821  155.9117 C.ar    1  UNL1        0.0154
     27 C         142.3024  138.5071  155.1507 C.ar    1  UNL1        0.0018
     28 C         142.3967  137.1873  155.8571 C.ar    1  UNL1        0.0073
     29 C         142.7040  137.1424  157.3246 C.ar    1  UNL1        0.0164
     30 C         142.9169  138.4174  158.0856 C.ar    1  UNL1        0.0636
     31 H         142.9735  141.8784  157.6765 H       1  UNL1        0.1424
     32 H         143.2371  140.9827  159.1034 H       1  UNL1        0.1424
     33 C         142.1838  135.9123  155.0961 C.ar    1  UNL1        0.0295
     34 C         142.0722  134.5393  155.6899 C.ar    1  UNL1        0.0070
     35 C         141.8646  133.5649  154.5686 C.ar    1  UNL1        0.0075
     36 C         141.8479  134.3356  153.2818 C.ar    1  UNL1        0.0354
     37 S         142.0452  135.7864  153.6079 S.2     1  UNL1       -0.0864
@<TRIPOS>BOND
     1    24    25    1
     2    25    26   ar
     3    26    27   ar
     4    27    28   ar
     5    28    33    1
     6    33    34   ar
     7    34    35   ar
     8    35    36   ar
     9    36    37   ar
    10    28    29   ar
    11    29    30   ar
    12    30    20    1
    13    20    21   am
    14    21    22    2
    15    21     1    1
    16     1     2   ar
    17     2     3   ar
    18     3     4   ar
    19     4     7    1
    20     7     8    2
    21     7     9   am
    22     9    10    1
    23    10    11    1
    24    11    12    1
    25    12    13    1
    26    13    14    1
    27    14    15    1
    28    15    16    1
    29    12    17    1
    30    17    18    1
    31     4     5   ar
    32     5     6   ar
    33    30    25   ar
    34     6     1   ar
    35    37    33   ar
    36    18     9    1
    37    16    12    1
    38    24    31    1
    39    24    32    1
    40    20    23    1
    41    16    19    1
@<TRIPOS>MOLECULE
*****
 37 41 0 0 0
SMALL
GASTEIGER

@<TRIPOS>ATOM
      1 C         141.0555  140.2392  159.7573 C.ar    1  UNL1        0.0537
      2 C         142.2804  140.2787  158.8924 C.ar    1  UNL1        0.0047
      3 C         142.4069  139.3416  157.7280 C.ar    1  UNL1        0.0047
      4 C         141.3085  138.3649  157.4286 C.ar    1  UNL1        0.0536
      5 C         140.0836  138.3254  158.2936 C.ar    1  UNL1        0.0047
      6 C         139.9572  139.2625  159.4579 C.ar    1  UNL1        0.0047
      7 C         141.4351  137.4278  156.2643 C.2     1  UNL1        0.2490
      8 O         140.7692  137.7565  154.9610 O.2     1  UNL1       -0.2699
      9 N         142.2276  136.1618  156.4031 N.am    1  UNL1       -0.2760
     10 C         142.3543  135.2246  155.2388 C.3     1  UNL1        0.0950
     11 C         143.1468  133.9587  155.3778 C.3     1  UNL1        0.0360
     12 C         143.8127  133.6299  156.6810 C.3     1  UNL1        0.0452
     13 C         144.5305  133.1700  157.9152 C.3     1  UNL1        0.0160
     14 C         145.1880  131.8575  157.6071 C.3     1  UNL1        0.0184
     15 C         144.8766  131.5062  156.1824 C.3     1  UNL1        0.0685
     16 N         144.0266  132.6017  155.6101 N.3     1  UNL1       -0.2994
     17 C         143.6861  134.5671  157.8453 C.3     1  UNL1        0.0360
     18 C         142.8935  135.8331  157.7064 C.3     1  UNL1        0.0950
     19 H         143.1286  132.2222  155.3102 H       1  UNL1        0.1232
     20 N         139.7418  141.0832  161.8339 N.am    1  UNL1       -0.2794
     21 C         140.9289  141.1764  160.9217 C.2     1  UNL1        0.2495
     22 O         141.9895  142.2067  161.1739 O.2     1  UNL1       -0.2698
     23 H         139.0457  140.4070  161.6684 H       1  UNL1        0.1552
     24 N         137.8190  143.3825  161.7068 N.pl3   1  UNL1       -0.3560
     25 C         138.6540  143.1700  162.9347 C.ar    1  UNL1        0.0552
     26 C         138.5275  144.1072  164.0990 C.ar    1  UNL1        0.0154
     27 C         139.3624  143.8946  165.3270 C.ar    1  UNL1        0.0018
     28 C         140.3238  142.7451  165.3905 C.ar    1  UNL1        0.0073
     29 C         140.4503  141.8079  164.2262 C.ar    1  UNL1        0.0164
     30 C         139.6154  142.0204  162.9983 C.ar    1  UNL1        0.0636
     31 H         137.1880  144.1370  161.6651 H       1  UNL1        0.1424
     32 H         137.9021  142.7674  160.9426 H       1  UNL1        0.1424
     33 C         141.1588  142.5325  166.6184 C.ar    1  UNL1        0.0295
     34 C         142.6330  142.2570  166.6453 C.ar    1  UNL1        0.0070
     35 C         143.0515  142.1124  168.0784 C.ar    1  UNL1        0.0075
     36 C         141.8359  142.2985  168.9373 C.ar    1  UNL1        0.0354
     37 S         140.6661  142.5582  168.0350 S.2     1  UNL1       -0.0864
@<TRIPOS>BOND
     1    24    25    1
     2    25    26   ar
     3    26    27   ar
     4    27    28   ar
     5    28    33    1
     6    33    34   ar
     7    34    35   ar
     8    35    36   ar
     9    36    37   ar
    10    28    29   ar
    11    29    30   ar
    12    30    20    1
    13    20    21   am
    14    21    22    2
    15    21     1    1
    16     1     2   ar
    17     2     3   ar
    18     3     4   ar
    19     4     7    1
    20     7     8    2
    21     7     9   am
    22     9    10    1
    23    10    11    1
    24    11    12    1
    25    12    13    1
    26    13    14    1
    27    14    15    1
    28    15    16    1
    29    12    17    1
    30    17    18    1
    31     4     5   ar
    32     5     6   ar
    33    30    25   ar
    34     6     1   ar
    35    37    33   ar
    36    18     9    1
    37    16    12    1
    38    24    31    1
    39    24    32    1
    40    20    23    1
    41    16    19    1
@<TRIPOS>MOLECULE
*****
 37 41 0 0 0
SMALL
GASTEIGER

@<TRIPOS>ATOM
      1 C         142.3761  144.0793  161.1709 C.ar    1  UNL1        0.0537
      2 C         143.4156  143.0397  161.4684 C.ar    1  UNL1        0.0047
      3 C         143.8756  142.8213  162.8794 C.ar    1  UNL1        0.0047
      4 C         143.2961  143.6426  163.9928 C.ar    1  UNL1        0.0536
      5 C         142.2566  144.6822  163.6953 C.ar    1  UNL1        0.0047
      6 C         141.7966  144.9006  162.2843 C.ar    1  UNL1        0.0047
      7 C         143.7562  143.4242  165.4036 C.2     1  UNL1        0.2490
      8 O         145.0932  143.9412  165.8451 O.2     1  UNL1       -0.2699
      9 N         142.8791  142.6887  166.3731 N.am    1  UNL1       -0.2760
     10 C         143.3391  142.4702  167.7840 C.3     1  UNL1        0.0950
     11 C         142.4620  141.7347  168.7535 C.3     1  UNL1        0.0360
     12 C         141.1249  141.2177  168.3120 C.3     1  UNL1        0.0452
     13 C         139.7700  140.6459  168.0165 C.3     1  UNL1        0.0160
     14 C         139.2565  139.9997  169.2690 C.3     1  UNL1        0.0184
     15 C         140.2941  140.1721  170.3385 C.3     1  UNL1        0.0685
     16 N         141.4488  140.9248  169.7470 N.3     1  UNL1       -0.2994
     17 C         140.6650  141.4361  166.9011 C.3     1  UNL1        0.0360
     18 C         141.5421  142.1716  165.9316 C.3     1  UNL1        0.0950
     19 H         142.2957  140.3589  169.8022 H       1  UNL1        0.1232
     20 N         140.4768  144.6153  159.4810 N.am    1  UNL1       -0.2794
     21 C         141.9160  144.2978  159.7600 C.2     1  UNL1        0.2495
     22 O         142.8952  144.1987  158.6281 O.2     1  UNL1       -0.2698
     23 H         139.8341  144.6804  160.2239 H       1  UNL1        0.1552
     24 N         139.7459  142.2684  157.7613 N.pl3   1  UNL1       -0.3560
     25 C         139.6514  143.6603  157.2102 C.ar    1  UNL1        0.0552
     26 C         139.1914  143.8787  155.7993 C.ar    1  UNL1        0.0154
     27 C         139.0969  145.2707  155.2483 C.ar    1  UNL1        0.0018
     28 C         139.4624  146.4441  156.1081 C.ar    1  UNL1        0.0073
     29 C         139.9223  146.2257  157.5191 C.ar    1  UNL1        0.0164
     30 C         140.0168  144.8338  158.0701 C.ar    1  UNL1        0.0636
     31 H         139.5060  141.4982  157.1969 H       1  UNL1        0.1424
     32 H         140.0477  142.1250  158.6873 H       1  UNL1        0.1424
     33 C         139.3679  147.8361  155.5571 C.ar    1  UNL1        0.0295
     34 C         138.6578  148.9916  156.1979 C.ar    1  UNL1        0.0070
     35 C         138.8179  150.1866  155.3055 C.ar    1  UNL1        0.0075
     36 C         139.6270  149.7696  154.1132 C.ar    1  UNL1        0.0354
     37 S         139.9670  148.3169  154.2688 S.2     1  UNL1       -0.0864
@<TRIPOS>BOND
     1    24    25    1
     2    25    26   ar
     3    26    27   ar
     4    27    28   ar
     5    28    33    1
     6    33    34   ar
     7    34    35   ar
     8    35    36   ar
     9    36    37   ar
    10    28    29   ar
    11    29    30   ar
    12    30    20    1
    13    20    21   am
    14    21    22    2
    15    21     1    1
    16     1     2   ar
    17     2     3   ar
    18     3     4   ar
    19     4     7    1
    20     7     8    2
    21     7     9   am
    22     9    10    1
    23    10    11    1
    24    11    12    1
    25    12    13    1
    26    13    14    1
    27    14    15    1
    28    15    16    1
    29    12    17    1
    30    17    18    1
    31     4     5   ar
    32     5     6   ar
    33    30    25   ar
    34     6     1   ar
    35    37    33   ar
    36    18     9    1
    37    16    12    1
    38    24    31    1
    39    24    32    1
    40    20    23    1
    41    16    19    1
@<TRIPOS>MOLECULE
*****
 37 41 0 0 0
SMALL
GASTEIGER

@<TRIPOS>ATOM
      1 C         142.5913  139.4985  160.7932 C.ar    1  UNL1        0.0537
      2 C         141.9989  140.8437  161.0926 C.ar    1  UNL1        0.0047
      3 C         142.3727  141.5638  162.3542 C.ar    1  UNL1        0.0047
      4 C         143.3388  140.9387  163.3164 C.ar    1  UNL1        0.0536
      5 C         143.9312  139.5936  163.0171 C.ar    1  UNL1        0.0047
      6 C         143.5574  138.8735  161.7554 C.ar    1  UNL1        0.0047
      7 C         143.7125  141.6589  164.5780 C.2     1  UNL1        0.2490
      8 O         144.9517  142.5030  164.6209 O.2     1  UNL1       -0.2699
      9 N         142.8470  141.5349  165.7969 N.am    1  UNL1       -0.2760
     10 C         143.2206  142.2550  167.0586 C.3     1  UNL1        0.0950
     11 C         142.3550  142.1310  168.2773 C.3     1  UNL1        0.0360
     12 C         141.1158  141.2869  168.2345 C.3     1  UNL1        0.0452
     13 C         139.8537  140.4833  168.3415 C.3     1  UNL1        0.0160
     14 C         139.3183  140.6445  169.7334 C.3     1  UNL1        0.0184
     15 C         140.2495  141.5477  170.4866 C.3     1  UNL1        0.0685
     16 N         141.3604  141.9447  169.5602 N.3     1  UNL1       -0.2994
     17 C         140.7422  140.5668  166.9728 C.3     1  UNL1        0.0360
     18 C         141.6078  140.6908  165.7540 C.3     1  UNL1        0.0950
     19 H         142.2551  141.6356  169.9401 H       1  UNL1        0.1232
     20 N         143.2674  138.4675  158.5062 N.am    1  UNL1       -0.2794
     21 C         142.2176  138.7783  159.5315 C.2     1  UNL1        0.2495
     22 O         140.7940  138.3690  159.2952 O.2     1  UNL1       -0.2698
     23 H         144.2018  138.7362  158.6612 H       1  UNL1        0.1552
     24 N         142.7063  140.0213  156.0020 N.pl3   1  UNL1       -0.3560
     25 C         142.6130  138.5242  155.9925 C.ar    1  UNL1        0.0552
     26 C         142.2393  137.8040  154.7309 C.ar    1  UNL1        0.0154
     27 C         142.1461  136.3069  154.7215 C.ar    1  UNL1        0.0018
     28 C         142.4266  135.5301  155.9735 C.ar    1  UNL1        0.0073
     29 C         142.8004  136.2503  157.2351 C.ar    1  UNL1        0.0164
     30 C         142.8936  137.7473  157.2446 C.ar    1  UNL1        0.0636
     31 H         142.5221  140.5311  155.1802 H       1  UNL1        0.1424
     32 H         142.9516  140.4939  156.8300 H       1  UNL1        0.1424
     33 C         142.3334  134.0329  155.9641 C.ar    1  UNL1        0.0295
     34 C         141.4431  133.2105  155.0803 C.ar    1  UNL1        0.0070
     35 C         141.6736  131.7648  155.4068 C.ar    1  UNL1        0.0075
     36 C         142.7063  131.6936  156.4923 C.ar    1  UNL1        0.0354
     37 S         143.1141  133.0954  156.8368 S.2     1  UNL1       -0.0864
@<TRIPOS>BOND
     1    24    25    1
     2    25    26   ar
     3    26    27   ar
     4    27    28   ar
     5    28    33    1
     6    33    34   ar
     7    34    35   ar
     8    35    36   ar
     9    36    37   ar
    10    28    29   ar
    11    29    30   ar
    12    30    20    1
    13    20    21   am
    14    21    22    2
    15    21     1    1
    16     1     2   ar
    17     2     3   ar
    18     3     4   ar
    19     4     7    1
    20     7     8    2
    21     7     9   am
    22     9    10    1
    23    10    11    1
    24    11    12    1
    25    12    13    1
    26    13    14    1
    27    14    15    1
    28    15    16    1
    29    12    17    1
    30    17    18    1
    31     4     5   ar
    32     5     6   ar
    33    30    25   ar
    34     6     1   ar
    35    37    33   ar
    36    18     9    1
    37    16    12    1
    38    24    31    1
    39    24    32    1
    40    20    23    1
    41    16    19    1
@<TRIPOS>MOLECULE
*****
 37 41 0 0 0
SMALL
GASTEIGER

@<TRIPOS>ATOM
      1 C         142.7005  143.6200  161.4585 C.ar    1  UNL1        0.0537
      2 C         143.3935  142.3760  161.9296 C.ar    1  UNL1        0.0047
      3 C         143.8126  142.2485  163.3642 C.ar    1  UNL1        0.0047
      4 C         143.5388  143.3651  164.3276 C.ar    1  UNL1        0.0536
      5 C         142.8458  144.6092  163.8565 C.ar    1  UNL1        0.0047
      6 C         142.4266  144.7366  162.4219 C.ar    1  UNL1        0.0047
      7 C         143.9579  143.2375  165.7622 C.2     1  UNL1        0.2490
      8 O         145.2908  143.7650  166.2039 O.2     1  UNL1       -0.2699
      9 N         143.0442  142.5825  166.7552 N.am    1  UNL1       -0.2760
     10 C         143.4633  142.4548  168.1898 C.3     1  UNL1        0.0950
     11 C         142.5495  141.7998  169.1826 C.3     1  UNL1        0.0360
     12 C         141.2165  141.2723  168.7410 C.3     1  UNL1        0.0452
     13 C         139.8611  140.7005  168.4482 C.3     1  UNL1        0.0160
     14 C         139.3046  140.1488  169.7272 C.3     1  UNL1        0.0184
     15 C         140.3162  140.3797  170.8105 C.3     1  UNL1        0.0685
     16 N         141.4978  141.0740  170.2010 N.3     1  UNL1       -0.2994
     17 C         140.7975  141.3999  167.3064 C.3     1  UNL1        0.0360
     18 C         141.7113  142.0550  166.3135 C.3     1  UNL1        0.0950
     19 H         142.3339  140.5016  170.3178 H       1  UNL1        0.1232
     20 N         140.9987  144.4434  159.6762 N.am    1  UNL1       -0.2794
     21 C         142.2813  143.7476  160.0238 C.2     1  UNL1        0.2495
     22 O         143.1448  143.1794  158.9369 O.2     1  UNL1       -0.2698
     23 H         140.4319  144.8163  160.3896 H       1  UNL1        0.1552
     24 N         142.5322  146.2318  157.8188 N.pl3   1  UNL1       -0.3560
     25 C         141.3463  145.4651  157.3129 C.ar    1  UNL1        0.0552
     26 C         140.9273  145.5926  155.8783 C.ar    1  UNL1        0.0154
     27 C         139.7413  144.8259  155.3725 C.ar    1  UNL1        0.0018
     28 C         138.9746  143.9317  156.3011 C.ar    1  UNL1        0.0073
     29 C         139.3937  143.8042  157.7357 C.ar    1  UNL1        0.0164
     30 C         140.5796  144.5709  158.2416 C.ar    1  UNL1        0.0636
     31 H         143.0355  146.8186  157.2093 H       1  UNL1        0.1424
     32 H         142.8073  146.1481  158.7604 H       1  UNL1        0.1424
     33 C         137.7887  143.1650  155.7953 C.ar    1  UNL1        0.0295
     34 C         137.1263  142.0094  156.4852 C.ar    1  UNL1        0.0070
     35 C         135.9853  141.5495  155.6271 C.ar    1  UNL1        0.0075
     36 C         135.9424  142.4207  154.4069 C.ar    1  UNL1        0.0354
     37 S         137.0570  143.4192  154.5108 S.2     1  UNL1       -0.0864
@<TRIPOS>BOND
     1    24    25    1
     2    25    26   ar
     3    26    27   ar
     4    27    28   ar
     5    28    33    1
     6    33    34   ar
     7    34    35   ar
     8    35    36   ar
     9    36    37   ar
    10    28    29   ar
    11    29    30   ar
    12    30    20    1
    13    20    21   am
    14    21    22    2
    15    21     1    1
    16     1     2   ar
    17     2     3   ar
    18     3     4   ar
    19     4     7    1
    20     7     8    2
    21     7     9   am
    22     9    10    1
    23    10    11    1
    24    11    12    1
    25    12    13    1
    26    13    14    1
    27    14    15    1
    28    15    16    1
    29    12    17    1
    30    17    18    1
    31     4     5   ar
    32     5     6   ar
    33    30    25   ar
    34     6     1   ar
    35    37    33   ar
    36    18     9    1
    37    16    12    1
    38    24    31    1
    39    24    32    1
    40    20    23    1
    41    16    19    1
@<TRIPOS>MOLECULE
*****
 37 41 0 0 0
SMALL
GASTEIGER

@<TRIPOS>ATOM
      1 C         142.1366  139.9066  159.9992 C.ar    1  UNL1        0.0537
      2 C         140.9206  139.0369  159.8773 C.ar    1  UNL1        0.0047
      3 C         140.7311  138.1788  158.6617 C.ar    1  UNL1        0.0047
      4 C         141.7576  138.1904  157.5680 C.ar    1  UNL1        0.0536
      5 C         142.9736  139.0601  157.6899 C.ar    1  UNL1        0.0047
      6 C         143.1631  139.9183  158.9055 C.ar    1  UNL1        0.0047
      7 C         141.5680  137.3323  156.3525 C.2     1  UNL1        0.2490
      8 O         140.7236  137.8214  155.2133 O.2     1  UNL1       -0.2699
      9 N         142.2229  135.9849  156.2760 N.am    1  UNL1       -0.2760
     10 C         142.0334  135.1267  155.0605 C.3     1  UNL1        0.0950
     11 C         142.6883  133.7794  154.9841 C.3     1  UNL1        0.0360
     12 C         143.5328  133.2903  156.1233 C.3     1  UNL1        0.0452
     13 C         144.4007  132.6708  157.1782 C.3     1  UNL1        0.0160
     14 C         144.8391  131.3236  156.6854 C.3     1  UNL1        0.0184
     15 C         144.2421  131.1105  155.3259 C.3     1  UNL1        0.0685
     16 N         143.4348  132.3260  154.9785 N.3     1  UNL1       -0.2994
     17 C         143.7223  134.1485  157.3388 C.3     1  UNL1        0.0360
     18 C         143.0674  135.4958  157.4152 C.3     1  UNL1        0.0950
     19 H         142.4605  132.0634  154.8295 H       1  UNL1        0.1232
     20 N         143.5314  140.5739  162.0873 N.am    1  UNL1       -0.2794
     21 C         142.3262  140.7648  161.2148 C.2     1  UNL1        0.2495
     22 O         141.3106  141.8140  161.5580 O.2     1  UNL1       -0.2698
     23 H         144.1980  139.8853  161.8621 H       1  UNL1        0.1552
     24 N         144.8486  143.2577  161.8381 N.pl3   1  UNL1       -0.3560
     25 C         144.3795  142.7740  163.1782 C.ar    1  UNL1        0.0552
     26 C         144.5690  143.6322  164.3937 C.ar    1  UNL1        0.0154
     27 C         144.0998  143.1485  165.7339 C.ar    1  UNL1        0.0018
     28 C         143.4412  141.8067  165.8584 C.ar    1  UNL1        0.0073
     29 C         143.2517  140.9484  164.6429 C.ar    1  UNL1        0.0164
     30 C         143.7209  141.4321  163.3028 C.ar    1  UNL1        0.0636
     31 H         145.2809  144.1384  161.7563 H       1  UNL1        0.1424
     32 H         144.7243  142.6944  161.0403 H       1  UNL1        0.1424
     33 C         142.9721  141.3229  167.1986 C.ar    1  UNL1        0.0295
     34 C         142.9566  142.1215  168.4683 C.ar    1  UNL1        0.0070
     35 C         142.4110  141.2478  169.5587 C.ar    1  UNL1        0.0075
     36 C         142.0893  139.9093  168.9630 C.ar    1  UNL1        0.0354
     37 S         142.4360  139.9557  167.5043 S.2     1  UNL1       -0.0864
@<TRIPOS>BOND
     1    24    25    1
     2    25    26   ar
     3    26    27   ar
     4    27    28   ar
     5    28    33    1
     6    33    34   ar
     7    34    35   ar
     8    35    36   ar
     9    36    37   ar
    10    28    29   ar
    11    29    30   ar
    12    30    20    1
    13    20    21   am
    14    21    22    2
    15    21     1    1
    16     1     2   ar
    17     2     3   ar
    18     3     4   ar
    19     4     7    1
    20     7     8    2
    21     7     9   am
    22     9    10    1
    23    10    11    1
    24    11    12    1
    25    12    13    1
    26    13    14    1
    27    14    15    1
    28    15    16    1
    29    12    17    1
    30    17    18    1
    31     4     5   ar
    32     5     6   ar
    33    30    25   ar
    34     6     1   ar
    35    37    33   ar
    36    18     9    1
    37    16    12    1
    38    24    31    1
    39    24    32    1
    40    20    23    1
    41    16    19    1
@<TRIPOS>MOLECULE
*****
 37 41 0 0 0
SMALL
GASTEIGER

@<TRIPOS>ATOM
      1 C         142.3661  139.9189  160.4650 C.ar    1  UNL1        0.0537
      2 C         141.0256  139.5839  161.0486 C.ar    1  UNL1        0.0047
      3 C         140.5087  140.3510  162.2294 C.ar    1  UNL1        0.0047
      4 C         141.3325  141.4531  162.8267 C.ar    1  UNL1        0.0536
      5 C         142.6731  141.7882  162.2431 C.ar    1  UNL1        0.0047
      6 C         143.1899  141.0211  161.0622 C.ar    1  UNL1        0.0047
      7 C         140.8156  142.2202  164.0075 C.2     1  UNL1        0.2490
      8 O         140.0039  143.4639  163.7971 O.2     1  UNL1       -0.2699
      9 N         141.1104  141.7435  165.3989 N.am    1  UNL1       -0.2760
     10 C         140.5935  142.5105  166.5798 C.3     1  UNL1        0.0950
     11 C         140.8883  142.0338  167.9711 C.3     1  UNL1        0.0360
     12 C         141.7000  140.7900  168.1816 C.3     1  UNL1        0.0452
     13 C         142.4938  139.5706  168.5461 C.3     1  UNL1        0.0160
     14 C         142.5371  139.4760  170.0425 C.3     1  UNL1        0.0184
     15 C         141.7701  140.6369  170.6028 C.3     1  UNL1        0.0685
     16 N         141.2527  141.4490  169.4527 N.3     1  UNL1       -0.2994
     17 C         142.2168  140.0230  167.0007 C.3     1  UNL1        0.0360
     18 C         141.9220  140.4998  165.6093 C.3     1  UNL1        0.0950
     19 H         141.6273  142.3965  169.5017 H       1  UNL1        0.1232
     20 N         142.0886  138.0083  158.7263 N.am    1  UNL1       -0.2794
     21 C         142.8831  139.1518  159.2841 C.2     1  UNL1        0.2495
     22 O         144.1946  139.5284  158.6610 O.2     1  UNL1       -0.2698
     23 H         141.2278  137.7612  159.1352 H       1  UNL1        0.1552
     24 N         142.2027  139.3096  156.0256 N.pl3   1  UNL1       -0.3560
     25 C         142.6627  137.8920  156.1951 C.ar    1  UNL1        0.0552
     26 C         143.1797  137.1250  155.0143 C.ar    1  UNL1        0.0154
     27 C         143.6397  135.7073  155.1838 C.ar    1  UNL1        0.0018
     28 C         143.5826  135.0567  156.5341 C.ar    1  UNL1        0.0073
     29 C         143.0656  135.8237  157.7149 C.ar    1  UNL1        0.0164
     30 C         142.6056  137.2413  157.5454 C.ar    1  UNL1        0.0636
     31 H         142.2402  139.7367  155.1393 H       1  UNL1        0.1424
     32 H         141.8634  139.8130  156.8006 H       1  UNL1        0.1424
     33 C         144.0426  133.6390  156.7037 C.ar    1  UNL1        0.0295
     34 C         144.6911  133.0630  157.9274 C.ar    1  UNL1        0.0070
     35 C         144.9841  131.6165  157.6594 C.ar    1  UNL1        0.0075
     36 C         144.5166  131.2986  156.2700 C.ar    1  UNL1        0.0354
     37 S         143.9347  132.5486  155.6793 S.2     1  UNL1       -0.0864
@<TRIPOS>BOND
     1    24    25    1
     2    25    26   ar
     3    26    27   ar
     4    27    28   ar
     5    28    33    1
     6    33    34   ar
     7    34    35   ar
     8    35    36   ar
     9    36    37   ar
    10    28    29   ar
    11    29    30   ar
    12    30    20    1
    13    20    21   am
    14    21    22    2
    15    21     1    1
    16     1     2   ar
    17     2     3   ar
    18     3     4   ar
    19     4     7    1
    20     7     8    2
    21     7     9   am
    22     9    10    1
    23    10    11    1
    24    11    12    1
    25    12    13    1
    26    13    14    1
    27    14    15    1
    28    15    16    1
    29    12    17    1
    30    17    18    1
    31     4     5   ar
    32     5     6   ar
    33    30    25   ar
    34     6     1   ar
    35    37    33   ar
    36    18     9    1
    37    16    12    1
    38    24    31    1
    39    24    32    1
    40    20    23    1
    41    16    19    1
