@<TRIPOS>MOLECULE
*****
 32 34 0 0 0
SMALL
GASTEIGER

@<TRIPOS>ATOM
      1 C         139.8291  143.3765  162.0690 C.ar    1  UNL1        0.1743
      2 N         140.6067  143.3196  163.3504 N.ar    1  UNL1       -0.2173
      3 C         140.0358  142.6116  164.5432 C.ar    1  UNL1        0.1834
      4 N         138.6874  141.9605  164.4546 N.ar    1  UNL1       -0.1885
      5 C         137.9098  142.0174  163.1732 C.ar    1  UNL1        0.2596
      6 O         136.5614  141.3663  163.0846 O.3     1  UNL1       -0.4898
      7 C         138.4807  142.7254  161.9804 C.ar    1  UNL1        0.2098
      8 O         137.7031  142.7823  160.6989 O.3     1  UNL1       -0.5007
      9 H         136.2049  140.9240  163.8297 H       1  UNL1        0.2938
     10 H         136.8608  142.3756  160.6435 H       1  UNL1        0.2924
     11 C         140.8134  142.5546  165.8247 C.ar    1  UNL1        0.1170
     12 C         140.1213  142.7965  167.1333 C.ar    1  UNL1        0.0261
     13 C         140.8988  142.7396  168.4148 C.ar    1  UNL1        0.0746
     14 C         142.3685  142.4408  168.3877 C.ar    1  UNL1        0.0245
     15 C         143.0607  142.1989  167.0791 C.ar    1  UNL1        0.0989
     16 N         142.2831  142.2558  165.7976 N.ar    1  UNL1       -0.2408
     17 C         140.2066  142.9815  169.7234 C.3     1  UNL1        0.4187
     18 F         139.5145  143.2233  171.0320 F       1  UNL1       -0.1659
     19 F         139.4910  141.6702  169.5872 F       1  UNL1       -0.1659
     20 F         140.9223  144.2927  169.8595 F       1  UNL1       -0.1659
     21 N         140.5234  143.3657  159.5654 N.am    1  UNL1       -0.3012
     22 C         140.3999  144.0845  160.8761 C.2     1  UNL1        0.2668
     23 O         140.8472  145.5114  160.9940 O.2     1  UNL1       -0.2684
     24 H         140.2299  142.4291  159.4881 H       1  UNL1        0.1497
     25 C         142.5803  144.1397  158.1797 C.3     1  UNL1        0.0213
     26 C         141.0943  144.0737  158.3725 C.3     1  UNL1        0.0719
     27 C         140.1790  144.7158  157.3725 C.3     1  UNL1        0.0180
     28 C         139.2567  143.8681  156.5474 C.3     1  UNL1        0.0016
     29 C         138.3414  144.5101  155.5474 C.3     1  UNL1        0.0001
     30 C         138.3483  145.9999  155.3725 C.3     1  UNL1        0.0000
     31 C         139.2706  146.8476  156.1977 C.3     1  UNL1        0.0001
     32 C         140.1859  146.2056  157.1977 C.3     1  UNL1        0.0016
@<TRIPOS>BOND
     1    26    25    1
     2    26    21    1
     3    21    22   am
     4    22    23    2
     5    22     1    1
     6     1     2   ar
     7     2     3   ar
     8     3    11    1
     9    11    12   ar
    10    12    13   ar
    11    13    17    1
    12    17    18    1
    13    17    19    1
    14    17    20    1
    15    13    14   ar
    16    14    15   ar
    17    15    16   ar
    18     3     4   ar
    19     4     5   ar
    20     5     6    1
    21     5     7   ar
    22     7     8    1
    23    26    27    1
    24    27    28    1
    25    28    29    1
    26    29    30    1
    27    30    31    1
    28    31    32    1
    29     7     1   ar
    30    32    27    1
    31    16    11   ar
    32    21    24    1
    33     6     9    1
    34     8    10    1
@<TRIPOS>MOLECULE
*****
 32 34 0 0 0
SMALL
GASTEIGER

@<TRIPOS>ATOM
      1 C         141.2541  145.0917  160.0459 C.ar    1  UNL1        0.1743
      2 N         142.2706  144.0990  160.5267 N.ar    1  UNL1       -0.2173
      3 C         142.2691  143.6588  161.9606 C.ar    1  UNL1        0.1834
      4 N         141.2512  144.2114  162.9138 N.ar    1  UNL1       -0.1885
      5 C         140.2348  145.2042  162.4330 C.ar    1  UNL1        0.2596
      6 O         139.2169  145.7568  163.3862 O.3     1  UNL1       -0.4898
      7 C         140.2362  145.6443  160.9991 C.ar    1  UNL1        0.2098
      8 O         139.2197  146.6371  160.5182 O.3     1  UNL1       -0.5007
      9 H         139.2160  145.4819  164.2819 H       1  UNL1        0.2938
     10 H         138.5838  146.9824  161.1136 H       1  UNL1        0.2924
     11 C         143.2856  142.6660  162.4415 C.ar    1  UNL1        0.1170
     12 C         143.2042  141.2351  161.9989 C.ar    1  UNL1        0.0261
     13 C         144.2206  140.2423  162.4797 C.ar    1  UNL1        0.0746
     14 C         145.3185  140.6804  163.4031 C.ar    1  UNL1        0.0245
     15 C         145.4000  142.1113  163.8457 C.ar    1  UNL1        0.0989
     16 N         144.3835  143.1041  163.3649 N.ar    1  UNL1       -0.2408
     17 C         144.1391  138.8114  162.0371 C.3     1  UNL1        0.4187
     18 F         144.0577  137.3805  161.5945 F       1  UNL1       -0.1659
     19 F         144.4697  139.2266  160.6341 F       1  UNL1       -0.1659
     20 F         143.8086  138.3963  163.4401 F       1  UNL1       -0.1659
     21 N         140.0129  145.3927  157.7834 N.am    1  UNL1       -0.3012
     22 C         141.2555  145.5319  158.6119 C.2     1  UNL1        0.2668
     23 O         142.4996  146.1113  158.0064 O.2     1  UNL1       -0.2684
     24 H         139.1963  145.0125  158.1808 H       1  UNL1        0.1497
     25 C         140.4114  144.8703  155.2698 C.3     1  UNL1        0.0213
     26 C         140.0143  145.8329  156.3494 C.3     1  UNL1        0.0719
     27 C         139.6185  147.2357  155.9951 C.3     1  UNL1        0.0180
     28 C         140.0183  147.8160  154.6710 C.3     1  UNL1        0.0016
     29 C         139.6225  149.2189  154.3167 C.3     1  UNL1        0.0001
     30 C         138.8271  150.0414  155.2866 C.3     1  UNL1        0.0000
     31 C         138.4273  149.4611  156.6108 C.3     1  UNL1        0.0001
     32 C         138.8231  148.0583  156.9651 C.3     1  UNL1        0.0016
@<TRIPOS>BOND
     1    26    25    1
     2    26    21    1
     3    21    22   am
     4    22    23    2
     5    22     1    1
     6     1     2   ar
     7     2     3   ar
     8     3    11    1
     9    11    12   ar
    10    12    13   ar
    11    13    17    1
    12    17    18    1
    13    17    19    1
    14    17    20    1
    15    13    14   ar
    16    14    15   ar
    17    15    16   ar
    18     3     4   ar
    19     4     5   ar
    20     5     6    1
    21     5     7   ar
    22     7     8    1
    23    26    27    1
    24    27    28    1
    25    28    29    1
    26    29    30    1
    27    30    31    1
    28    31    32    1
    29     7     1   ar
    30    32    27    1
    31    16    11   ar
    32    21    24    1
    33     6     9    1
    34     8    10    1
@<TRIPOS>MOLECULE
*****
 32 34 0 0 0
SMALL
GASTEIGER

@<TRIPOS>ATOM
      1 C         140.2043  143.7638  161.8360 C.ar    1  UNL1        0.1743
      2 N         140.1261  142.3098  162.1963 N.ar    1  UNL1       -0.2173
      3 C         139.6222  141.8981  163.5477 C.ar    1  UNL1        0.1834
      4 N         139.1965  142.9403  164.5390 N.ar    1  UNL1       -0.1885
      5 C         139.2747  144.3943  164.1787 C.ar    1  UNL1        0.2596
      6 O         138.8490  145.4365  165.1700 O.3     1  UNL1       -0.4898
      7 C         139.7786  144.8060  162.8273 C.ar    1  UNL1        0.2098
      8 O         139.8568  146.2601  162.4670 O.3     1  UNL1       -0.5007
      9 H         138.5342  145.1793  166.0142 H       1  UNL1        0.2938
     10 H         139.5909  146.9111  163.0862 H       1  UNL1        0.2924
     11 C         139.5440  140.4441  163.9080 C.ar    1  UNL1        0.1170
     12 C         138.7014  140.0031  165.0680 C.ar    1  UNL1        0.0261
     13 C         138.6231  138.5492  165.4284 C.ar    1  UNL1        0.0746
     14 C         139.3875  137.5361  164.6287 C.ar    1  UNL1        0.0245
     15 C         140.2301  137.9770  163.4687 C.ar    1  UNL1        0.0989
     16 N         140.3083  139.4310  163.1084 N.ar    1  UNL1       -0.2408
     17 C         137.7805  138.1082  166.5884 C.3     1  UNL1        0.4187
     18 F         136.9379  137.6673  167.7484 F       1  UNL1       -0.1659
     19 F         137.8409  136.6932  166.0943 F       1  UNL1       -0.1659
     20 F         137.7202  139.5232  167.0824 F       1  UNL1       -0.1659
     21 N         140.4322  143.3155  159.2871 N.am    1  UNL1       -0.3012
     22 C         140.7082  144.1756  160.4845 C.2     1  UNL1        0.2668
     23 O         141.4882  145.4476  160.3305 O.2     1  UNL1       -0.2684
     24 H         139.9202  142.4806  159.3882 H       1  UNL1        0.1497
     25 C         142.2808  143.2608  157.4624 C.3     1  UNL1        0.0213
     26 C         140.9361  143.7273  157.9356 C.3     1  UNL1        0.0719
     27 C         140.0952  144.6056  157.0573 C.3     1  UNL1        0.0180
     28 C         139.0167  144.0032  156.2064 C.3     1  UNL1        0.0016
     29 C         138.1758  144.8815  155.3281 C.3     1  UNL1        0.0001
     30 C         138.4134  146.3623  155.3006 C.3     1  UNL1        0.0000
     31 C         139.4919  146.9648  156.1515 C.3     1  UNL1        0.0001
     32 C         140.3328  146.0865  157.0298 C.3     1  UNL1        0.0016
@<TRIPOS>BOND
     1    26    25    1
     2    26    21    1
     3    21    22   am
     4    22    23    2
     5    22     1    1
     6     1     2   ar
     7     2     3   ar
     8     3    11    1
     9    11    12   ar
    10    12    13   ar
    11    13    17    1
    12    17    18    1
    13    17    19    1
    14    17    20    1
    15    13    14   ar
    16    14    15   ar
    17    15    16   ar
    18     3     4   ar
    19     4     5   ar
    20     5     6    1
    21     5     7   ar
    22     7     8    1
    23    26    27    1
    24    27    28    1
    25    28    29    1
    26    29    30    1
    27    30    31    1
    28    31    32    1
    29     7     1   ar
    30    32    27    1
    31    16    11   ar
    32    21    24    1
    33     6     9    1
    34     8    10    1
@<TRIPOS>MOLECULE
*****
 32 34 0 0 0
SMALL
GASTEIGER

@<TRIPOS>ATOM
      1 C         140.5405  143.4391  161.6575 C.ar    1  UNL1        0.1743
      2 N         140.1887  142.7008  162.9149 N.ar    1  UNL1       -0.2173
      3 C         141.0055  142.9028  164.1566 C.ar    1  UNL1        0.1834
      4 N         142.1741  143.8431  164.1410 N.ar    1  UNL1       -0.1885
      5 C         142.5259  144.5814  162.8836 C.ar    1  UNL1        0.2596
      6 O         143.6945  145.5217  162.8679 O.3     1  UNL1       -0.4898
      7 C         141.7091  144.3794  161.6418 C.ar    1  UNL1        0.2098
      8 O         142.0608  145.1178  160.3844 O.3     1  UNL1       -0.5007
      9 H         144.2047  145.6479  163.6436 H       1  UNL1        0.2938
     10 H         142.7908  145.7051  160.3746 H       1  UNL1        0.2924
     11 C         140.6538  142.1644  165.4141 C.ar    1  UNL1        0.1170
     12 C         139.6937  141.0130  165.3641 C.ar    1  UNL1        0.0261
     13 C         139.3420  140.2747  166.6215 C.ar    1  UNL1        0.0746
     14 C         139.9503  140.6877  167.9290 C.ar    1  UNL1        0.0245
     15 C         140.9104  141.8391  167.9790 C.ar    1  UNL1        0.0989
     16 N         141.2621  142.5775  166.7215 N.ar    1  UNL1       -0.2408
     17 C         138.3819  139.1232  166.5716 C.3     1  UNL1        0.4187
     18 F         137.4218  137.9718  166.5216 F       1  UNL1       -0.1659
     19 F         138.1898  139.2190  168.0561 F       1  UNL1       -0.1659
     20 F         138.5741  139.0275  165.0870 F       1  UNL1       -0.1659
     21 N         140.4022  143.1109  159.0839 N.am    1  UNL1       -0.3012
     22 C         139.7237  143.2372  160.4157 C.2     1  UNL1        0.2668
     23 O         138.2283  143.1615  160.5057 O.2     1  UNL1       -0.2684
     24 H         141.3837  143.1606  159.0249 H       1  UNL1        0.1497
     25 C         139.1095  141.5353  157.4725 C.3     1  UNL1        0.0213
     26 C         139.5854  142.9089  157.8421 C.3     1  UNL1        0.0719
     27 C         139.2444  144.0807  156.9699 C.3     1  UNL1        0.0180
     28 C         138.1989  143.9426  155.9032 C.3     1  UNL1        0.0016
     29 C         137.8580  145.1144  155.0310 C.3     1  UNL1        0.0001
     30 C         138.5626  146.4242  155.2254 C.3     1  UNL1        0.0000
     31 C         139.6082  146.5623  156.2921 C.3     1  UNL1        0.0001
     32 C         139.9491  145.3906  157.1643 C.3     1  UNL1        0.0016
@<TRIPOS>BOND
     1    26    25    1
     2    26    21    1
     3    21    22   am
     4    22    23    2
     5    22     1    1
     6     1     2   ar
     7     2     3   ar
     8     3    11    1
     9    11    12   ar
    10    12    13   ar
    11    13    17    1
    12    17    18    1
    13    17    19    1
    14    17    20    1
    15    13    14   ar
    16    14    15   ar
    17    15    16   ar
    18     3     4   ar
    19     4     5   ar
    20     5     6    1
    21     5     7   ar
    22     7     8    1
    23    26    27    1
    24    27    28    1
    25    28    29    1
    26    29    30    1
    27    30    31    1
    28    31    32    1
    29     7     1   ar
    30    32    27    1
    31    16    11   ar
    32    21    24    1
    33     6     9    1
    34     8    10    1
@<TRIPOS>MOLECULE
*****
 32 34 0 0 0
SMALL
GASTEIGER

@<TRIPOS>ATOM
      1 C         139.8897  143.0105  160.8372 C.ar    1  UNL1        0.1743
      2 N         139.7264  143.5396  159.4432 N.ar    1  UNL1       -0.2173
      3 C         140.6633  144.5903  158.9253 C.ar    1  UNL1        0.1834
      4 N         141.7635  145.1118  159.8015 N.ar    1  UNL1       -0.1885
      5 C         141.9267  144.5827  161.1955 C.ar    1  UNL1        0.2596
      6 O         143.0268  145.1043  162.0717 O.3     1  UNL1       -0.4898
      7 C         140.9898  143.5320  161.7134 C.ar    1  UNL1        0.2098
      8 O         141.1530  143.0028  163.1074 O.3     1  UNL1       -0.5007
      9 H         143.6121  145.7606  161.7482 H       1  UNL1        0.2938
     10 H         141.8402  143.3286  163.6548 H       1  UNL1        0.2924
     11 C         140.5002  145.1195  157.5312 C.ar    1  UNL1        0.1170
     12 C         139.8031  146.4278  157.3025 C.ar    1  UNL1        0.0261
     13 C         139.6399  146.9570  155.9085 C.ar    1  UNL1        0.0746
     14 C         140.1738  146.1779  154.7432 C.ar    1  UNL1        0.0245
     15 C         140.8708  144.8695  154.9719 C.ar    1  UNL1        0.0989
     16 N         141.0340  144.3403  156.3660 N.ar    1  UNL1       -0.2408
     17 C         138.9429  148.2654  155.6798 C.3     1  UNL1        0.4187
     18 F         138.2458  149.5738  155.4511 F       1  UNL1       -0.1659
     19 F         139.3102  148.2071  154.2266 F       1  UNL1       -0.1659
     20 F         138.5755  148.3237  157.1329 F       1  UNL1       -0.1659
     21 N         139.4387  140.5550  161.5566 N.am    1  UNL1       -0.3012
     22 C         138.9527  141.9597  161.3551 C.2     1  UNL1        0.2668
     23 O         137.5299  142.3138  161.6715 O.2     1  UNL1       -0.2684
     24 H         140.3725  140.3227  161.3489 H       1  UNL1        0.1497
     25 C         137.5759  138.7944  161.1317 C.3     1  UNL1        0.0213
     26 C         138.5017  139.5043  162.0745 C.3     1  UNL1        0.0719
     27 C         138.4906  139.1635  163.5352 C.3     1  UNL1        0.0180
     28 C         138.1702  140.2209  164.5496 C.3     1  UNL1        0.0016
     29 C         138.1591  139.8801  166.0104 C.3     1  UNL1        0.0001
     30 C         138.4685  138.4819  166.4567 C.3     1  UNL1        0.0000
     31 C         138.7889  137.4244  165.4422 C.3     1  UNL1        0.0001
     32 C         138.8000  137.7652  163.9815 C.3     1  UNL1        0.0016
@<TRIPOS>BOND
     1    26    25    1
     2    26    21    1
     3    21    22   am
     4    22    23    2
     5    22     1    1
     6     1     2   ar
     7     2     3   ar
     8     3    11    1
     9    11    12   ar
    10    12    13   ar
    11    13    17    1
    12    17    18    1
    13    17    19    1
    14    17    20    1
    15    13    14   ar
    16    14    15   ar
    17    15    16   ar
    18     3     4   ar
    19     4     5   ar
    20     5     6    1
    21     5     7   ar
    22     7     8    1
    23    26    27    1
    24    27    28    1
    25    28    29    1
    26    29    30    1
    27    30    31    1
    28    31    32    1
    29     7     1   ar
    30    32    27    1
    31    16    11   ar
    32    21    24    1
    33     6     9    1
    34     8    10    1
@<TRIPOS>MOLECULE
*****
 32 34 0 0 0
SMALL
GASTEIGER

@<TRIPOS>ATOM
      1 C         140.5136  143.1130  163.7113 C.ar    1  UNL1        0.1743
      2 N         141.3123  142.4444  162.6319 N.ar    1  UNL1       -0.2173
      3 C         141.7468  143.2255  161.4274 C.ar    1  UNL1        0.1834
      4 N         141.3826  144.6752  161.3022 N.ar    1  UNL1       -0.1885
      5 C         140.5840  145.3439  162.3815 C.ar    1  UNL1        0.2596
      6 O         140.2199  146.7936  162.2563 O.3     1  UNL1       -0.4898
      7 C         140.1495  144.5628  163.5861 C.ar    1  UNL1        0.2098
      8 O         139.3508  145.2314  164.6655 O.3     1  UNL1       -0.5007
      9 H         140.4913  147.2815  161.5038 H       1  UNL1        0.2938
     10 H         139.1233  146.1370  164.5873 H       1  UNL1        0.2924
     11 C         142.5455  142.5569  160.3479 C.ar    1  UNL1        0.1170
     12 C         142.4113  141.0802  160.1212 C.ar    1  UNL1        0.0261
     13 C         143.2100  140.4116  159.0418 C.ar    1  UNL1        0.0746
     14 C         144.1428  141.2196  158.1891 C.ar    1  UNL1        0.0245
     15 C         144.2769  142.6963  158.4159 C.ar    1  UNL1        0.0989
     16 N         143.4782  143.3649  159.4953 N.ar    1  UNL1       -0.2408
     17 C         143.0758  138.9349  158.8150 C.3     1  UNL1        0.4187
     18 F         142.9417  137.4582  158.5882 F       1  UNL1       -0.1659
     19 F         143.2122  139.1495  157.3367 F       1  UNL1       -0.1659
     20 F         142.9394  138.7203  160.2933 F       1  UNL1       -0.1659
     21 N         139.8551  140.8526  164.8098 N.am    1  UNL1       -0.3012
     22 C         140.0791  142.3319  164.9160 C.2     1  UNL1        0.2668
     23 O         139.8686  143.0303  166.2267 O.2     1  UNL1       -0.2684
     24 H         139.9932  140.3943  163.9496 H       1  UNL1        0.1497
     25 C         138.0504  139.4626  166.0594 C.3     1  UNL1        0.0213
     26 C         139.4205  140.0715  166.0145 C.3     1  UNL1        0.0719
     27 C         140.3561  139.8993  167.1742 C.3     1  UNL1        0.0180
     28 C         139.8488  140.0571  168.5770 C.3     1  UNL1        0.0016
     29 C         140.7845  139.8849  169.7367 C.3     1  UNL1        0.0001
     30 C         142.2274  139.5550  169.4937 C.3     1  UNL1        0.0000
     31 C         142.7347  139.3972  168.0909 C.3     1  UNL1        0.0001
     32 C         141.7991  139.5694  166.9312 C.3     1  UNL1        0.0016
@<TRIPOS>BOND
     1    26    25    1
     2    26    21    1
     3    21    22   am
     4    22    23    2
     5    22     1    1
     6     1     2   ar
     7     2     3   ar
     8     3    11    1
     9    11    12   ar
    10    12    13   ar
    11    13    17    1
    12    17    18    1
    13    17    19    1
    14    17    20    1
    15    13    14   ar
    16    14    15   ar
    17    15    16   ar
    18     3     4   ar
    19     4     5   ar
    20     5     6    1
    21     5     7   ar
    22     7     8    1
    23    26    27    1
    24    27    28    1
    25    28    29    1
    26    29    30    1
    27    30    31    1
    28    31    32    1
    29     7     1   ar
    30    32    27    1
    31    16    11   ar
    32    21    24    1
    33     6     9    1
    34     8    10    1
@<TRIPOS>MOLECULE
*****
 32 34 0 0 0
SMALL
GASTEIGER

@<TRIPOS>ATOM
      1 C         140.6609  143.0068  163.0269 C.ar    1  UNL1        0.1743
      2 N         140.0766  143.0726  161.6470 N.ar    1  UNL1       -0.2173
      3 C         140.7666  143.8663  160.5775 C.ar    1  UNL1        0.1834
      4 N         142.0409  144.5942  160.8880 N.ar    1  UNL1       -0.1885
      5 C         142.6252  144.5284  162.2679 C.ar    1  UNL1        0.2596
      6 O         143.8994  145.2563  162.5784 O.3     1  UNL1       -0.4898
      7 C         141.9351  143.7347  163.3374 C.ar    1  UNL1        0.2098
      8 O         142.5194  143.6688  164.7174 O.3     1  UNL1       -0.5007
      9 H         144.3305  145.7521  161.9103 H       1  UNL1        0.2938
     10 H         143.3154  144.1235  164.9114 H       1  UNL1        0.2924
     11 C         140.1824  143.9321  159.1975 C.ar    1  UNL1        0.1170
     12 C         140.3834  145.1572  158.3556 C.ar    1  UNL1        0.0261
     13 C         139.7992  145.2231  156.9757 C.ar    1  UNL1        0.0746
     14 C         139.0140  144.0639  156.4375 C.ar    1  UNL1        0.0245
     15 C         138.8130  142.8387  157.2793 C.ar    1  UNL1        0.0989
     16 N         139.3972  142.7729  158.6594 N.ar    1  UNL1       -0.2408
     17 C         140.0002  146.4482  156.1338 C.3     1  UNL1        0.4187
     18 F         140.2012  147.6733  155.2920 F       1  UNL1       -0.1659
     19 F         138.5256  146.5054  155.8649 F       1  UNL1       -0.1659
     20 F         141.4748  146.3911  156.4028 F       1  UNL1       -0.1659
     21 N         140.7565  141.2610  164.9487 N.am    1  UNL1       -0.3012
     22 C         139.9708  142.2130  164.0965 C.2     1  UNL1        0.2668
     23 O         138.4951  142.3715  164.3138 O.2     1  UNL1       -0.2684
     24 H         141.7250  141.1570  164.8060 H       1  UNL1        0.1497
     25 C         139.4524  139.1391  165.6883 C.3     1  UNL1        0.0213
     26 C         140.0664  140.4672  166.0183 C.3     1  UNL1        0.0719
     27 C         139.9905  141.0017  167.4177 C.3     1  UNL1        0.0180
     28 C         140.5406  142.3613  167.7322 C.3     1  UNL1        0.0016
     29 C         140.4647  142.8958  169.1317 C.3     1  UNL1        0.0001
     30 C         139.8386  142.0707  170.2167 C.3     1  UNL1        0.0000
     31 C         139.2884  140.7111  169.9022 C.3     1  UNL1        0.0001
     32 C         139.3644  140.1766  168.5028 C.3     1  UNL1        0.0016
@<TRIPOS>BOND
     1    26    25    1
     2    26    21    1
     3    21    22   am
     4    22    23    2
     5    22     1    1
     6     1     2   ar
     7     2     3   ar
     8     3    11    1
     9    11    12   ar
    10    12    13   ar
    11    13    17    1
    12    17    18    1
    13    17    19    1
    14    17    20    1
    15    13    14   ar
    16    14    15   ar
    17    15    16   ar
    18     3     4   ar
    19     4     5   ar
    20     5     6    1
    21     5     7   ar
    22     7     8    1
    23    26    27    1
    24    27    28    1
    25    28    29    1
    26    29    30    1
    27    30    31    1
    28    31    32    1
    29     7     1   ar
    30    32    27    1
    31    16    11   ar
    32    21    24    1
    33     6     9    1
    34     8    10    1
@<TRIPOS>MOLECULE
*****
 32 34 0 0 0
SMALL
GASTEIGER

@<TRIPOS>ATOM
      1 C         142.3404  141.9845  163.2392 C.ar    1  UNL1        0.1743
      2 N         142.0648  142.4746  161.8487 N.ar    1  UNL1       -0.2173
      3 C         143.2033  142.7629  160.9156 C.ar    1  UNL1        0.1834
      4 N         144.6175  142.5611  161.3732 N.ar    1  UNL1       -0.1885
      5 C         144.8931  142.0710  162.7638 C.ar    1  UNL1        0.2596
      6 O         146.3073  141.8692  163.2214 O.3     1  UNL1       -0.4898
      7 C         143.7546  141.7827  163.6968 C.ar    1  UNL1        0.2098
      8 O         144.0302  141.2926  165.0875 O.3     1  UNL1       -0.5007
      9 H         147.0185  142.0493  162.6385 H       1  UNL1        0.2938
     10 H         144.9136  141.1665  165.3733 H       1  UNL1        0.2924
     11 C         142.9277  143.2530  159.5250 C.ar    1  UNL1        0.1170
     12 C         141.9145  144.3356  159.2984 C.ar    1  UNL1        0.0261
     13 C         141.6388  144.8257  157.9078 C.ar    1  UNL1        0.0746
     14 C         142.3765  144.2333  156.7437 C.ar    1  UNL1        0.0245
     15 C         143.3897  143.1507  156.9703 C.ar    1  UNL1        0.0989
     16 N         143.6653  142.6606  158.3610 N.ar    1  UNL1       -0.2408
     17 C         140.6256  145.9083  157.6812 C.3     1  UNL1        0.4187
     18 F         139.6123  146.9909  157.4546 F       1  UNL1       -0.1659
     19 F         139.9876  145.5872  159.0002 F       1  UNL1       -0.1659
     20 F         141.2636  146.2294  156.3622 F       1  UNL1       -0.1659
     21 N         141.3203  140.5929  165.1817 N.am    1  UNL1       -0.3012
     22 C         141.2019  141.6962  164.1724 C.2     1  UNL1        0.2668
     23 O         139.9449  142.5112  164.0961 O.2     1  UNL1       -0.2684
     24 H         142.1453  140.0581  165.2317 H       1  UNL1        0.1497
     25 C         139.1158  139.3268  165.7177 C.3     1  UNL1        0.0213
     26 C         140.1817  140.3046  166.1148 C.3     1  UNL1        0.0719
     27 C         140.1091  140.9942  167.4449 C.3     1  UNL1        0.0180
     28 C         139.5484  140.2724  168.6343 C.3     1  UNL1        0.0016
     29 C         139.4758  140.9620  169.9644 C.3     1  UNL1        0.0001
     30 C         139.9639  142.3733  170.1052 C.3     1  UNL1        0.0000
     31 C         140.5247  143.0951  168.9158 C.3     1  UNL1        0.0001
     32 C         140.5973  142.4056  167.5856 C.3     1  UNL1        0.0016
@<TRIPOS>BOND
     1    26    25    1
     2    26    21    1
     3    21    22   am
     4    22    23    2
     5    22     1    1
     6     1     2   ar
     7     2     3   ar
     8     3    11    1
     9    11    12   ar
    10    12    13   ar
    11    13    17    1
    12    17    18    1
    13    17    19    1
    14    17    20    1
    15    13    14   ar
    16    14    15   ar
    17    15    16   ar
    18     3     4   ar
    19     4     5   ar
    20     5     6    1
    21     5     7   ar
    22     7     8    1
    23    26    27    1
    24    27    28    1
    25    28    29    1
    26    29    30    1
    27    30    31    1
    28    31    32    1
    29     7     1   ar
    30    32    27    1
    31    16    11   ar
    32    21    24    1
    33     6     9    1
    34     8    10    1
@<TRIPOS>MOLECULE
*****
 32 34 0 0 0
SMALL
GASTEIGER

@<TRIPOS>ATOM
      1 C         140.6333  143.4017  161.5220 C.ar    1  UNL1        0.1743
      2 N         140.2907  142.6093  162.7487 N.ar    1  UNL1       -0.2173
      3 C         141.1017  142.7755  163.9995 C.ar    1  UNL1        0.1834
      4 N         142.2552  143.7340  164.0237 N.ar    1  UNL1       -0.1885
      5 C         142.5978  144.5263  162.7970 C.ar    1  UNL1        0.2596
      6 O         143.7514  145.4848  162.8212 O.3     1  UNL1       -0.4898
      7 C         141.7868  144.3602  161.5462 C.ar    1  UNL1        0.2098
      8 O         142.1294  145.1526  160.3194 O.3     1  UNL1       -0.5007
      9 H         144.2580  145.5886  163.6026 H       1  UNL1        0.2938
     10 H         142.8500  145.7514  160.3345 H       1  UNL1        0.2924
     11 C         140.7591  141.9831  165.2262 C.ar    1  UNL1        0.1170
     12 C         140.7761  142.6420  166.5737 C.ar    1  UNL1        0.0261
     13 C         140.4336  141.8497  167.8004 C.ar    1  UNL1        0.0746
     14 C         140.0741  140.3984  167.6797 C.ar    1  UNL1        0.0245
     15 C         140.0571  139.7394  166.3323 C.ar    1  UNL1        0.0989
     16 N         140.3996  140.5318  165.1055 N.ar    1  UNL1       -0.2408
     17 C         140.4506  142.5086  169.1478 C.3     1  UNL1        0.4187
     18 F         140.4676  143.1675  170.4952 F       1  UNL1       -0.1659
     19 F         140.0599  143.8116  168.5155 F       1  UNL1       -0.1659
     20 F         140.8412  141.2057  169.7800 F       1  UNL1       -0.1659
     21 N         140.5093  143.0895  158.9457 N.am    1  UNL1       -0.3012
     22 C         139.8223  143.2356  160.2711 C.2     1  UNL1        0.2668
     23 O         138.3242  143.2156  160.3456 O.2     1  UNL1       -0.2684
     24 H         141.4925  143.1026  158.8968 H       1  UNL1        0.1497
     25 C         139.2639  141.5555  157.2586 C.3     1  UNL1        0.0213
     26 C         139.6983  142.9234  157.6948 C.3     1  UNL1        0.0719
     27 C         139.3216  144.1252  156.8800 C.3     1  UNL1        0.0180
     28 C         140.0045  145.4388  157.1212 C.3     1  UNL1        0.0016
     29 C         139.6279  146.6406  156.3064 C.3     1  UNL1        0.0001
     30 C         138.5684  146.5289  155.2506 C.3     1  UNL1        0.0000
     31 C         137.8854  145.2152  155.0094 C.3     1  UNL1        0.0001
     32 C         138.2620  144.0134  155.8241 C.3     1  UNL1        0.0016
@<TRIPOS>BOND
     1    26    25    1
     2    26    21    1
     3    21    22   am
     4    22    23    2
     5    22     1    1
     6     1     2   ar
     7     2     3   ar
     8     3    11    1
     9    11    12   ar
    10    12    13   ar
    11    13    17    1
    12    17    18    1
    13    17    19    1
    14    17    20    1
    15    13    14   ar
    16    14    15   ar
    17    15    16   ar
    18     3     4   ar
    19     4     5   ar
    20     5     6    1
    21     5     7   ar
    22     7     8    1
    23    26    27    1
    24    27    28    1
    25    28    29    1
    26    29    30    1
    27    30    31    1
    28    31    32    1
    29     7     1   ar
    30    32    27    1
    31    16    11   ar
    32    21    24    1
    33     6     9    1
    34     8    10    1
