@<TRIPOS>MOLECULE
*****
 39 44 0 0 0
SMALL
GASTEIGER

@<TRIPOS>ATOM
      1 C         142.8080  135.8049  157.6853 C.ar    1  UNL1        0.2400
      2 N         142.2232  135.3519  156.3804 N.ar    1  UNL1       -0.2090
      3 C         141.4890  136.3271  155.5088 C.ar    1  UNL1        0.1026
      4 C         141.1586  137.8271  155.6435 C.ar    1  UNL1        0.0267
      5 C         141.9346  137.2821  156.8058 C.ar    1  UNL1        0.0226
      6 C         142.6586  137.2332  158.1185 C.ar    1  UNL1        0.1178
      7 N         143.2434  137.6862  159.4234 N.pl3   1  UNL1       -0.2104
      8 S         143.6185  138.5866  160.5630 S.O2    1  UNL1        0.0737
      9 O         144.3701  138.3687  161.8427 O.2     1  UNL1       -0.1499
     10 O         144.0938  137.1749  160.7399 O.2     1  UNL1       -0.1499
     11 C         143.7386  139.8256  161.4000 C.ar    1  UNL1        0.1253
     12 C         144.4626  139.7767  162.7127 C.ar    1  UNL1        0.0202
     13 C         144.5827  141.0157  163.5496 C.ar    1  UNL1        0.0015
     14 C         143.9787  142.3036  163.0737 C.ar    1  UNL1        0.0046
     15 C         143.2546  142.3525  161.7610 C.ar    1  UNL1        0.0547
     16 C         143.1346  141.1135  160.9241 C.ar    1  UNL1        0.0247
     17 C         142.5843  143.9871  161.3347 C.2     1  UNL1        0.2461
     18 O         142.9593  144.8874  162.4743 O.2     1  UNL1       -0.2701
     19 N         141.8500  144.9622  160.4630 N.am    1  UNL1       -0.2969
     20 C         141.0741  145.5072  159.3007 C.3     1  UNL1        0.1181
     21 C         140.3500  145.5561  157.9879 C.ar    1  UNL1        0.0167
     22 C         139.6302  146.6808  157.2172 C.ar    1  UNL1        0.0962
     23 N         138.9062  146.7297  155.9044 N.ar    1  UNL1       -0.2425
     24 C         138.7861  145.4907  155.0675 C.ar    1  UNL1        0.1003
     25 C         139.3901  144.2028  155.5434 C.ar    1  UNL1        0.0367
     26 C         139.7652  145.1031  156.6830 C.ar    1  UNL1        0.0020
     27 C         139.2701  142.9638  154.7065 C.ar    1  UNL1        0.0865
     28 N         138.5358  143.9390  153.8348 N.ar    1  UNL1       -0.2239
     29 C         137.9510  143.4859  152.5299 C.ar    1  UNL1        0.1993
     30 N         138.1004  142.0577  152.0967 N.ar    1  UNL1       -0.2173
     31 C         138.8347  141.0824  152.9684 C.ar    1  UNL1        0.1139
     32 S         139.2462  139.6406  153.0124 S.2     1  UNL1       -0.0679
     33 C         140.4244  138.8023  154.7718 C.ar    1  UNL1        0.0325
     34 C         139.8204  140.0902  154.2960 C.ar    1  UNL1        0.0101
     35 C         139.4195  141.5354  154.2733 C.ar    1  UNL1        0.0421
     36 H         143.6399  136.8409  159.7357 H       1  UNL1        0.1739
     37 H         141.9288  145.7754  161.0123 H       1  UNL1        0.1501
     38 C         144.1000  133.5685  157.9668 C.3     1  UNL1        0.2543
     39 O         143.5423  134.8297  158.5569 O.3     1  UNL1       -0.4553
@<TRIPOS>BOND
     1    38    39    1
     2    39     1    1
     3     1     2   ar
     4     2     3   ar
     5     3     4   ar
     6     4     5   ar
     7     5     6   ar
     8     6     7    1
     9     7     8    1
    10     8     9    2
    11     8    10    2
    12     8    11    1
    13    11    12   ar
    14    12    13   ar
    15    13    14   ar
    16    14    15   ar
    17    15    16   ar
    18    15    17    1
    19    17    18    2
    20    17    19   am
    21    19    20    1
    22    20    21    1
    23    21    22   ar
    24    22    23   ar
    25    23    24   ar
    26    24    25   ar
    27    25    26   ar
    28    25    27    1
    29    27    28   ar
    30    28    29   ar
    31    29    30   ar
    32    30    31   ar
    33    31    32   ar
    34    32    33   ar
    35    33    34   ar
    36    34    35   ar
    37     6     1   ar
    38    16    11   ar
    39    26    21   ar
    40    35    27   ar
    41    33     4    1
    42    35    31   ar
    43     7    36    1
    44    19    37    1
@<TRIPOS>MOLECULE
*****
 39 44 0 0 0
SMALL
GASTEIGER

@<TRIPOS>ATOM
      1 C         140.3220  145.6687  154.8167 C.ar    1  UNL1        0.2400
      2 N         139.9289  146.8278  155.6840 N.ar    1  UNL1       -0.2090
      3 C         139.9336  146.6829  157.1769 C.ar    1  UNL1        0.1026
      4 C         140.2781  145.5181  158.1265 C.ar    1  UNL1        0.0267
      5 C         140.4298  145.1678  156.6758 C.ar    1  UNL1        0.0226
      6 C         140.7197  144.3648  155.4425 C.ar    1  UNL1        0.1178
      7 N         141.1128  143.2057  154.5753 N.pl3   1  UNL1       -0.2104
      8 S         141.5616  141.8305  154.1788 S.O2    1  UNL1        0.0737
      9 O         141.8086  141.1700  152.8548 O.2     1  UNL1       -0.1499
     10 O         141.3068  142.7329  153.0080 O.2     1  UNL1       -0.1499
     11 C         142.0120  140.4048  154.3007 C.ar    1  UNL1        0.1253
     12 C         142.3019  139.6018  153.0674 C.ar    1  UNL1        0.0202
     13 C         142.7524  138.1763  153.1894 C.ar    1  UNL1        0.0015
     14 C         142.9129  137.5538  154.5447 C.ar    1  UNL1        0.0046
     15 C         142.6230  138.3568  155.7780 C.ar    1  UNL1        0.0547
     16 C         142.1726  139.7824  155.6560 C.ar    1  UNL1        0.0247
     17 C         142.8674  137.4535  157.3358 C.2     1  UNL1        0.2461
     18 O         143.3162  136.0782  156.9393 O.2     1  UNL1       -0.2701
     19 N         142.8721  137.3087  158.8288 N.am    1  UNL1       -0.2969
     20 C         142.7204  137.6588  160.2794 C.3     1  UNL1        0.1181
     21 C         142.4305  138.4620  161.5127 C.ar    1  UNL1        0.0167
     22 C         142.4895  138.1451  163.0204 C.ar    1  UNL1        0.0962
     23 N         142.1996  138.9483  164.2537 N.ar    1  UNL1       -0.2425
     24 C         141.7492  140.3738  164.1318 C.ar    1  UNL1        0.1003
     25 C         141.5886  140.9963  162.7765 C.ar    1  UNL1        0.0367
     26 C         142.0374  139.6210  162.3800 C.ar    1  UNL1        0.0020
     27 C         141.1382  142.4218  162.6545 C.ar    1  UNL1        0.0865
     28 N         141.1429  142.2770  164.1476 N.ar    1  UNL1       -0.2239
     29 C         140.7498  143.4361  165.0147 C.ar    1  UNL1        0.1993
     30 N         140.3521  144.7400  164.3890 N.ar    1  UNL1       -0.2173
     31 C         140.3474  144.8848  162.8960 C.ar    1  UNL1        0.1139
     32 S         140.0559  145.8937  161.8249 S.2     1  UNL1       -0.0679
     33 C         140.2828  145.3732  159.6194 C.ar    1  UNL1        0.0325
     34 C         140.4434  144.7507  160.9747 C.ar    1  UNL1        0.0101
     35 C         140.7404  143.7257  162.0287 C.ar    1  UNL1        0.0421
     36 H         141.0074  143.6143  153.6858 H       1  UNL1        0.1739
     37 H         143.1677  136.3730  158.9089 H       1  UNL1        0.1501
     38 C         141.4903  146.4368  152.6270 C.3     1  UNL1        0.2543
     39 O         140.3173  145.8136  153.3238 O.3     1  UNL1       -0.4553
@<TRIPOS>BOND
     1    38    39    1
     2    39     1    1
     3     1     2   ar
     4     2     3   ar
     5     3     4   ar
     6     4     5   ar
     7     5     6   ar
     8     6     7    1
     9     7     8    1
    10     8     9    2
    11     8    10    2
    12     8    11    1
    13    11    12   ar
    14    12    13   ar
    15    13    14   ar
    16    14    15   ar
    17    15    16   ar
    18    15    17    1
    19    17    18    2
    20    17    19   am
    21    19    20    1
    22    20    21    1
    23    21    22   ar
    24    22    23   ar
    25    23    24   ar
    26    24    25   ar
    27    25    26   ar
    28    25    27    1
    29    27    28   ar
    30    28    29   ar
    31    29    30   ar
    32    30    31   ar
    33    31    32   ar
    34    32    33   ar
    35    33    34   ar
    36    34    35   ar
    37     6     1   ar
    38    16    11   ar
    39    26    21   ar
    40    35    27   ar
    41    33     4    1
    42    35    31   ar
    43     7    36    1
    44    19    37    1
@<TRIPOS>MOLECULE
*****
 39 44 0 0 0
SMALL
GASTEIGER

@<TRIPOS>ATOM
      1 C         143.6379  142.4942  160.7885 C.ar    1  UNL1        0.2400
      2 N         144.3302  141.2423  161.2393 N.ar    1  UNL1       -0.2090
      3 C         144.1095  139.9556  160.5005 C.ar    1  UNL1        0.1026
      4 C         143.2612  139.5727  159.2714 C.ar    1  UNL1        0.0267
      5 C         143.1516  141.0222  159.6417 C.ar    1  UNL1        0.0226
      6 C         142.7248  142.4595  159.5989 C.ar    1  UNL1        0.1178
      7 N         142.0325  143.7115  159.1480 N.pl3   1  UNL1       -0.2104
      8 S         141.1581  144.6270  158.3436 S.O2    1  UNL1        0.0737
      9 O         140.8331  146.0882  158.4404 O.2     1  UNL1       -0.1499
     10 O         141.8517  145.3159  159.4813 O.2     1  UNL1       -0.1499
     11 C         140.2069  145.0958  157.2826 C.ar    1  UNL1        0.1253
     12 C         139.7802  146.5331  157.2397 C.ar    1  UNL1        0.0202
     13 C         138.8292  147.0018  156.1787 C.ar    1  UNL1        0.0015
     14 C         138.3048  146.0331  155.1605 C.ar    1  UNL1        0.0046
     15 C         138.7315  144.5957  155.2034 C.ar    1  UNL1        0.0547
     16 C         139.6826  144.1271  156.2644 C.ar    1  UNL1        0.0247
     17 C         138.0048  143.5585  153.9000 C.2     1  UNL1        0.2461
     18 O         137.1303  144.4740  153.0956 O.2     1  UNL1       -0.2701
     19 N         137.7842  142.2718  153.1613 N.am    1  UNL1       -0.2969
     20 C         137.8937  140.8224  152.7909 C.3     1  UNL1        0.1181
     21 C         138.3205  139.3850  152.8338 C.ar    1  UNL1        0.0167
     22 C         137.9851  138.1549  151.9670 C.ar    1  UNL1        0.0962
     23 N         138.4119  136.7175  152.0098 N.ar    1  UNL1       -0.2425
     24 C         139.3629  136.2488  153.0708 C.ar    1  UNL1        0.1003
     25 C         139.8873  137.2175  154.0890 C.ar    1  UNL1        0.0367
     26 C         139.0128  138.1330  153.2846 C.ar    1  UNL1        0.0020
     27 C         140.8384  136.7488  155.1500 C.ar    1  UNL1        0.0865
     28 N         140.6177  135.4621  154.4112 N.ar    1  UNL1       -0.2239
     29 C         141.3101  134.2102  154.8621 C.ar    1  UNL1        0.1993
     30 N         142.2231  134.2448  156.0517 N.ar    1  UNL1       -0.2173
     31 C         142.4437  135.5316  156.7905 C.ar    1  UNL1        0.1139
     32 S         143.1993  136.0872  157.9611 S.2     1  UNL1       -0.0679
     33 C         143.0405  138.2861  158.5326 C.ar    1  UNL1        0.0325
     34 C         142.5162  137.3174  157.5144 C.ar    1  UNL1        0.0101
     35 C         141.7514  136.7835  156.3397 C.ar    1  UNL1        0.0421
     36 H         142.3767  144.3473  159.8163 H       1  UNL1        0.1739
     37 H         137.1599  142.5794  152.4649 H       1  UNL1        0.1501
     38 C         142.9666  144.1488  162.6758 C.3     1  UNL1        0.2543
     39 O         143.8585  143.7808  161.5273 O.3     1  UNL1       -0.4553
@<TRIPOS>BOND
     1    38    39    1
     2    39     1    1
     3     1     2   ar
     4     2     3   ar
     5     3     4   ar
     6     4     5   ar
     7     5     6   ar
     8     6     7    1
     9     7     8    1
    10     8     9    2
    11     8    10    2
    12     8    11    1
    13    11    12   ar
    14    12    13   ar
    15    13    14   ar
    16    14    15   ar
    17    15    16   ar
    18    15    17    1
    19    17    18    2
    20    17    19   am
    21    19    20    1
    22    20    21    1
    23    21    22   ar
    24    22    23   ar
    25    23    24   ar
    26    24    25   ar
    27    25    26   ar
    28    25    27    1
    29    27    28   ar
    30    28    29   ar
    31    29    30   ar
    32    30    31   ar
    33    31    32   ar
    34    32    33   ar
    35    33    34   ar
    36    34    35   ar
    37     6     1   ar
    38    16    11   ar
    39    26    21   ar
    40    35    27   ar
    41    33     4    1
    42    35    31   ar
    43     7    36    1
    44    19    37    1
@<TRIPOS>MOLECULE
*****
 39 44 0 0 0
SMALL
GASTEIGER

@<TRIPOS>ATOM
      1 C         142.7071  136.9965  155.4453 C.ar    1  UNL1        0.2400
      2 N         143.0005  135.9990  156.5264 N.ar    1  UNL1       -0.2090
      3 C         142.9025  136.4041  157.9673 C.ar    1  UNL1        0.1026
      4 C         142.5379  137.7256  158.6731 C.ar    1  UNL1        0.0267
      5 C         142.4948  137.8188  157.1765 C.ar    1  UNL1        0.0226
      6 C         142.3157  138.3992  155.8050 C.ar    1  UNL1        0.1178
      7 N         142.0223  139.3967  154.7239 N.pl3   1  UNL1       -0.2104
      8 S         141.6500  140.6910  154.0635 S.O2    1  UNL1        0.0737
      9 O         141.5146  141.1140  152.6308 O.2     1  UNL1       -0.1499
     10 O         141.9491  139.5910  153.0885 O.2     1  UNL1       -0.1499
     11 C         141.2436  142.1261  153.9035 C.ar    1  UNL1        0.1253
     12 C         141.0646  142.7064  152.5320 C.ar    1  UNL1        0.0202
     13 C         140.6582  144.1414  152.3721 C.ar    1  UNL1        0.0015
     14 C         140.4309  144.9960  153.5837 C.ar    1  UNL1        0.0046
     15 C         140.6100  144.4157  154.9552 C.ar    1  UNL1        0.0547
     16 C         141.0163  142.9807  155.1151 C.ar    1  UNL1        0.0247
     17 C         140.2958  145.5844  156.3110 C.2     1  UNL1        0.2461
     18 O         139.9234  146.8787  155.6507 O.2     1  UNL1       -0.2701
     19 N         140.1978  145.9894  157.7519 N.am    1  UNL1       -0.2969
     20 C         140.2409  145.8963  159.2484 C.3     1  UNL1        0.1181
     21 C         140.4200  145.3158  160.6200 C.ar    1  UNL1        0.0167
     22 C         140.2730  145.8941  162.0416 C.ar    1  UNL1        0.0962
     23 N         140.4521  145.3137  163.4131 N.ar    1  UNL1       -0.2425
     24 C         140.8584  143.8787  163.5731 C.ar    1  UNL1        0.1003
     25 C         141.0857  143.0240  162.3615 C.ar    1  UNL1        0.0367
     26 C         140.7134  144.3184  161.7011 C.ar    1  UNL1        0.0020
     27 C         141.4921  141.5890  162.5214 C.ar    1  UNL1        0.0865
     28 N         141.3941  141.9941  163.9624 N.ar    1  UNL1       -0.2239
     29 C         141.6875  140.9966  165.0435 C.ar    1  UNL1        0.1993
     30 N         142.0788  139.5940  164.6838 N.ar    1  UNL1       -0.2173
     31 C         142.1768  139.1889  163.2428 C.ar    1  UNL1        0.1139
     32 S         142.5021  138.0008  162.3868 S.2     1  UNL1       -0.0679
     33 C         142.4399  138.1307  160.1139 C.ar    1  UNL1        0.0325
     34 C         142.2126  138.9853  161.3255 C.ar    1  UNL1        0.0101
     35 C         141.8834  140.1864  162.1616 C.ar    1  UNL1        0.0421
     36 H         142.1715  138.8357  153.9287 H       1  UNL1        0.1739
     37 H         139.9311  146.9313  157.6470 H       1  UNL1        0.1501
     38 C         141.7283  135.7491  153.3871 C.3     1  UNL1        0.2543
     39 O         142.8051  136.5914  154.0044 O.3     1  UNL1       -0.4553
@<TRIPOS>BOND
     1    38    39    1
     2    39     1    1
     3     1     2   ar
     4     2     3   ar
     5     3     4   ar
     6     4     5   ar
     7     5     6   ar
     8     6     7    1
     9     7     8    1
    10     8     9    2
    11     8    10    2
    12     8    11    1
    13    11    12   ar
    14    12    13   ar
    15    13    14   ar
    16    14    15   ar
    17    15    16   ar
    18    15    17    1
    19    17    18    2
    20    17    19   am
    21    19    20    1
    22    20    21    1
    23    21    22   ar
    24    22    23   ar
    25    23    24   ar
    26    24    25   ar
    27    25    26   ar
    28    25    27    1
    29    27    28   ar
    30    28    29   ar
    31    29    30   ar
    32    30    31   ar
    33    31    32   ar
    34    32    33   ar
    35    33    34   ar
    36    34    35   ar
    37     6     1   ar
    38    16    11   ar
    39    26    21   ar
    40    35    27   ar
    41    33     4    1
    42    35    31   ar
    43     7    36    1
    44    19    37    1
@<TRIPOS>MOLECULE
*****
 39 44 0 0 0
SMALL
GASTEIGER

@<TRIPOS>ATOM
      1 C         139.2429  147.0505  156.8381 C.ar    1  UNL1        0.2400
      2 N         139.1628  147.0214  155.3405 N.ar    1  UNL1       -0.2090
      3 C         139.5532  145.7812  154.5925 C.ar    1  UNL1        0.1026
      4 C         140.0662  144.3959  155.0341 C.ar    1  UNL1        0.0267
      5 C         139.8081  145.3279  156.1807 C.ar    1  UNL1        0.0226
      6 C         139.7133  145.8393  157.5877 C.ar    1  UNL1        0.1178
      7 N         139.7934  145.8683  159.0852 N.pl3   1  UNL1       -0.2104
      8 S         140.0386  145.4115  160.4928 S.O2    1  UNL1        0.0737
      9 O         139.8871  146.0726  161.8307 O.2     1  UNL1       -0.1499
     10 O         139.5378  146.8228  160.4049 O.2     1  UNL1       -0.1499
     11 C         140.4194  144.5240  161.6406 C.ar    1  UNL1        0.1253
     12 C         140.3246  145.0354  163.0475 C.ar    1  UNL1        0.0202
     13 C         140.7054  144.1479  164.1953 C.ar    1  UNL1        0.0015
     14 C         141.1809  142.7491  163.9361 C.ar    1  UNL1        0.0046
     15 C         141.2757  142.2378  162.5292 C.ar    1  UNL1        0.0547
     16 C         140.8949  143.1252  161.3814 C.ar    1  UNL1        0.0247
     17 C         141.8687  140.5254  162.3919 C.2     1  UNL1        0.2461
     18 O         142.1139  140.0686  163.7994 O.2     1  UNL1       -0.2701
     19 N         142.2590  139.2852  161.6438 N.am    1  UNL1       -0.2969
     20 C         142.5172  138.3532  160.4972 C.3     1  UNL1        0.1181
     21 C         142.6119  137.8419  159.0902 C.ar    1  UNL1        0.0167
     22 C         143.0482  136.4947  158.4806 C.ar    1  UNL1        0.0962
     23 N         143.1430  135.9833  157.0736 N.ar    1  UNL1       -0.2425
     24 C         142.7622  136.8708  155.9259 C.ar    1  UNL1        0.1003
     25 C         142.2867  138.2696  156.1850 C.ar    1  UNL1        0.0367
     26 C         142.5319  137.8128  157.5926 C.ar    1  UNL1        0.0020
     27 C         141.9059  139.1571  155.0373 C.ar    1  UNL1        0.0865
     28 N         142.2963  137.9169  154.2892 N.ar    1  UNL1       -0.2239
     29 C         142.2162  137.8879  152.7916 C.ar    1  UNL1        0.1993
     30 N         141.7458  139.0990  152.0421 N.ar    1  UNL1       -0.2173
     31 C         141.3554  140.3392  152.7902 C.ar    1  UNL1        0.1139
     32 S         140.8520  141.7322  152.5529 S.2     1  UNL1       -0.0679
     33 C         140.4566  143.1558  154.2861 C.ar    1  UNL1        0.0325
     34 C         140.9321  141.7570  154.0269 C.ar    1  UNL1        0.0101
     35 C         141.4354  140.3683  154.2877 C.ar    1  UNL1        0.0421
     36 H         139.4812  146.7864  159.2554 H       1  UNL1        0.1739
     37 H         142.5089  138.7027  162.3971 H       1  UNL1        0.1501
     38 C         138.4581  149.5272  156.8342 C.3     1  UNL1        0.2543
     39 O         138.8525  148.2906  157.5861 O.3     1  UNL1       -0.4553
@<TRIPOS>BOND
     1    38    39    1
     2    39     1    1
     3     1     2   ar
     4     2     3   ar
     5     3     4   ar
     6     4     5   ar
     7     5     6   ar
     8     6     7    1
     9     7     8    1
    10     8     9    2
    11     8    10    2
    12     8    11    1
    13    11    12   ar
    14    12    13   ar
    15    13    14   ar
    16    14    15   ar
    17    15    16   ar
    18    15    17    1
    19    17    18    2
    20    17    19   am
    21    19    20    1
    22    20    21    1
    23    21    22   ar
    24    22    23   ar
    25    23    24   ar
    26    24    25   ar
    27    25    26   ar
    28    25    27    1
    29    27    28   ar
    30    28    29   ar
    31    29    30   ar
    32    30    31   ar
    33    31    32   ar
    34    32    33   ar
    35    33    34   ar
    36    34    35   ar
    37     6     1   ar
    38    16    11   ar
    39    26    21   ar
    40    35    27   ar
    41    33     4    1
    42    35    31   ar
    43     7    36    1
    44    19    37    1
@<TRIPOS>MOLECULE
*****
 39 44 0 0 0
SMALL
GASTEIGER

@<TRIPOS>ATOM
      1 C         141.2544  135.6461  154.7239 C.ar    1  UNL1        0.2400
      2 N         142.0556  134.8233  155.6888 N.ar    1  UNL1       -0.2090
      3 C         142.5441  135.4332  156.9692 C.ar    1  UNL1        0.1026
      4 C         142.4082  136.8368  157.5926 C.ar    1  UNL1        0.0267
      5 C         141.7293  136.7090  156.2612 C.ar    1  UNL1        0.0226
      6 C         140.9417  137.0788  155.0393 C.ar    1  UNL1        0.1178
      7 N         140.1405  137.9016  154.0743 N.pl3   1  UNL1       -0.2104
      8 S         139.4224  139.0781  153.4827 S.O2    1  UNL1        0.0737
      9 O         138.6609  139.2841  152.2069 O.2     1  UNL1       -0.1499
     10 O         139.3676  137.8529  152.6190 O.2     1  UNL1       -0.1499
     11 C         138.8738  140.4665  153.3357 C.ar    1  UNL1        0.1253
     12 C         138.0863  140.8363  152.1139 C.ar    1  UNL1        0.0202
     13 C         137.5378  142.2246  151.9669 C.ar    1  UNL1        0.0015
     14 C         137.7768  143.2432  153.0418 C.ar    1  UNL1        0.0046
     15 C         138.5644  142.8734  154.2637 C.ar    1  UNL1        0.0547
     16 C         139.1129  141.4851  154.4106 C.ar    1  UNL1        0.0247
     17 C         138.7610  144.2221  155.4658 C.2     1  UNL1        0.2461
     18 O         138.0429  145.3986  154.8742 O.2     1  UNL1       -0.2701
     19 N         139.2495  144.8320  156.7462 N.am    1  UNL1       -0.2969
     20 C         139.9284  144.9598  158.0776 C.3     1  UNL1        0.1181
     21 C         140.7160  144.5900  159.2995 C.ar    1  UNL1        0.0167
     22 C         141.1383  145.3674  160.5621 C.ar    1  UNL1        0.0962
     23 N         141.9259  144.9976  161.7840 N.ar    1  UNL1       -0.2425
     24 C         142.4744  143.6092  161.9310 C.ar    1  UNL1        0.1003
     25 C         142.2354  142.5907  160.8561 C.ar    1  UNL1        0.0367
     26 C         141.5172  143.7672  160.2645 C.ar    1  UNL1        0.0020
     27 C         142.7839  141.2023  161.0031 C.ar    1  UNL1        0.0865
     28 N         143.2724  141.8123  162.2835 N.ar    1  UNL1       -0.2239
     29 C         144.0735  140.9895  163.2484 C.ar    1  UNL1        0.1993
     30 N         144.3863  139.5568  162.9330 N.ar    1  UNL1       -0.2173
     31 C         143.8977  138.9468  161.6526 C.ar    1  UNL1        0.1139
     32 S         143.9240  137.6524  160.8951 S.2     1  UNL1       -0.0679
     33 C         142.8967  137.4468  158.8729 C.ar    1  UNL1        0.0325
     34 C         143.1358  138.4653  159.9478 C.ar    1  UNL1        0.0101
     35 C         143.0966  139.7696  160.6876 C.ar    1  UNL1        0.0421
     36 H         139.9836  137.2331  153.3689 H       1  UNL1        0.1739
     37 H         138.8895  145.7432  156.6497 H       1  UNL1        0.1501
     38 C         141.3665  133.7548  152.9461 C.3     1  UNL1        0.2543
     39 O         140.7660  135.0361  153.4435 O.3     1  UNL1       -0.4553
@<TRIPOS>BOND
     1    38    39    1
     2    39     1    1
     3     1     2   ar
     4     2     3   ar
     5     3     4   ar
     6     4     5   ar
     7     5     6   ar
     8     6     7    1
     9     7     8    1
    10     8     9    2
    11     8    10    2
    12     8    11    1
    13    11    12   ar
    14    12    13   ar
    15    13    14   ar
    16    14    15   ar
    17    15    16   ar
    18    15    17    1
    19    17    18    2
    20    17    19   am
    21    19    20    1
    22    20    21    1
    23    21    22   ar
    24    22    23   ar
    25    23    24   ar
    26    24    25   ar
    27    25    26   ar
    28    25    27    1
    29    27    28   ar
    30    28    29   ar
    31    29    30   ar
    32    30    31   ar
    33    31    32   ar
    34    32    33   ar
    35    33    34   ar
    36    34    35   ar
    37     6     1   ar
    38    16    11   ar
    39    26    21   ar
    40    35    27   ar
    41    33     4    1
    42    35    31   ar
    43     7    36    1
    44    19    37    1
@<TRIPOS>MOLECULE
*****
 39 44 0 0 0
SMALL
GASTEIGER

@<TRIPOS>ATOM
      1 C         143.8571  141.4664  161.5861 C.ar    1  UNL1        0.2400
      2 N         144.4401  140.1345  161.9550 N.ar    1  UNL1       -0.2090
      3 C         144.1950  138.9405  161.0808 C.ar    1  UNL1        0.1026
      4 C         143.4133  138.7318  159.7684 C.ar    1  UNL1        0.0267
      5 C         143.3649  140.1441  160.2715 C.ar    1  UNL1        0.0226
      6 C         143.0290  141.6043  160.3429 C.ar    1  UNL1        0.1178
      7 N         142.4460  142.9362  159.9740 N.pl3   1  UNL1       -0.2104
      8 S         141.6863  143.9792  159.2092 S.O2    1  UNL1        0.0737
      9 O         141.4433  145.4431  159.4281 O.2     1  UNL1       -0.1499
     10 O         142.3387  144.5105  160.4511 O.2     1  UNL1       -0.1499
     11 C         140.8414  144.6076  158.1409 C.ar    1  UNL1        0.1253
     12 C         140.5055  146.0677  158.2123 C.ar    1  UNL1        0.0202
     13 C         139.6607  146.6960  157.1439 C.ar    1  UNL1        0.0015
     14 C         139.1518  145.8642  156.0041 C.ar    1  UNL1        0.0046
     15 C         139.4877  144.4041  155.9327 C.ar    1  UNL1        0.0547
     16 C         140.3325  143.7758  157.0011 C.ar    1  UNL1        0.0247
     17 C         138.7931  143.5444  154.4900 C.2     1  UNL1        0.2461
     18 O         138.0334  144.5874  153.7253 O.2     1  UNL1       -0.2701
     19 N         138.5481  142.3503  153.6159 N.am    1  UNL1       -0.2969
     20 C         138.5964  140.9381  153.1127 C.3     1  UNL1        0.1181
     21 C         138.9324  139.4779  153.0413 C.ar    1  UNL1        0.0167
     22 C         138.5854  138.3597  152.0383 C.ar    1  UNL1        0.0962
     23 N         138.9214  136.8995  151.9669 N.ar    1  UNL1       -0.2425
     24 C         139.7662  136.2711  153.0352 C.ar    1  UNL1        0.1003
     25 C         140.2751  137.1030  154.1750 C.ar    1  UNL1        0.0367
     26 C         139.5154  138.1460  153.4102 C.ar    1  UNL1        0.0020
     27 C         141.1200  136.4746  155.2434 C.ar    1  UNL1        0.0865
     28 N         140.8749  135.2805  154.3692 N.ar    1  UNL1       -0.2239
     29 C         141.4579  133.9486  154.7382 C.ar    1  UNL1        0.1993
     30 N         142.2860  133.8107  155.9812 N.ar    1  UNL1       -0.2173
     31 C         142.5310  135.0049  156.8554 C.ar    1  UNL1        0.1139
     32 S         143.2348  135.3968  158.1208 S.2     1  UNL1       -0.0679
     33 C         143.1683  137.5378  158.8942 C.ar    1  UNL1        0.0325
     34 C         142.6594  136.7060  157.7544 C.ar    1  UNL1        0.0101
     35 C         141.9480  136.3368  156.4865 C.ar    1  UNL1        0.0421
     36 H         142.7800  143.4821  160.7221 H       1  UNL1        0.1739
     37 H         137.9936  142.7627  152.9147 H       1  UNL1        0.1501
     38 C         143.9444  142.5462  163.9475 C.3     1  UNL1        0.2543
     39 O         144.1021  142.6604  162.4603 O.3     1  UNL1       -0.4553
@<TRIPOS>BOND
     1    38    39    1
     2    39     1    1
     3     1     2   ar
     4     2     3   ar
     5     3     4   ar
     6     4     5   ar
     7     5     6   ar
     8     6     7    1
     9     7     8    1
    10     8     9    2
    11     8    10    2
    12     8    11    1
    13    11    12   ar
    14    12    13   ar
    15    13    14   ar
    16    14    15   ar
    17    15    16   ar
    18    15    17    1
    19    17    18    2
    20    17    19   am
    21    19    20    1
    22    20    21    1
    23    21    22   ar
    24    22    23   ar
    25    23    24   ar
    26    24    25   ar
    27    25    26   ar
    28    25    27    1
    29    27    28   ar
    30    28    29   ar
    31    29    30   ar
    32    30    31   ar
    33    31    32   ar
    34    32    33   ar
    35    33    34   ar
    36    34    35   ar
    37     6     1   ar
    38    16    11   ar
    39    26    21   ar
    40    35    27   ar
    41    33     4    1
    42    35    31   ar
    43     7    36    1
    44    19    37    1
@<TRIPOS>MOLECULE
*****
 39 44 0 0 0
SMALL
GASTEIGER

@<TRIPOS>ATOM
      1 C         143.0405  137.9924  156.4022 C.ar    1  UNL1        0.2400
      2 N         143.2704  136.8086  157.2942 N.ar    1  UNL1       -0.2090
      3 C         142.9570  136.9005  158.7581 C.ar    1  UNL1        0.1026
      4 C         142.4023  138.0265  159.6534 C.ar    1  UNL1        0.0267
      5 C         142.5441  138.4259  158.2145 C.ar    1  UNL1        0.0226
      6 C         142.4972  139.2683  156.9743 C.ar    1  UNL1        0.1178
      7 N         142.2674  140.4521  156.0823 N.pl3   1  UNL1       -0.2104
      8 S         141.8822  141.8347  155.6463 S.O2    1  UNL1        0.0737
      9 O         141.8987  142.5383  154.3217 O.2     1  UNL1       -0.1499
     10 O         142.3893  140.9776  154.5245 O.2     1  UNL1       -0.1499
     11 C         141.3882  143.2492  155.7186 C.ar    1  UNL1        0.1253
     12 C         141.3413  144.0916  154.4784 C.ar    1  UNL1        0.0202
     13 C         140.8474  145.5061  154.5508 C.ar    1  UNL1        0.0015
     14 C         140.4002  146.0781  155.8634 C.ar    1  UNL1        0.0046
     15 C         140.4471  145.2357  157.1036 C.ar    1  UNL1        0.0547
     16 C         140.9411  143.8213  157.0312 C.ar    1  UNL1        0.0247
     17 C         139.8709  146.0803  158.6061 C.2     1  UNL1        0.2461
     18 O         139.4857  147.4628  158.1700 O.2     1  UNL1       -0.2701
     19 N         139.5576  146.1721  160.0701 N.am    1  UNL1       -0.2969
     20 C         139.4158  145.7728  161.5090 C.3     1  UNL1        0.1181
     21 C         139.4627  144.9303  162.7492 C.ar    1  UNL1        0.0167
     22 C         139.0897  145.1929  164.2220 C.ar    1  UNL1        0.0962
     23 N         139.1366  144.3504  165.4622 N.ar    1  UNL1       -0.2425
     24 C         139.6306  142.9359  165.3898 C.ar    1  UNL1        0.1003
     25 C         140.0777  142.3639  164.0772 C.ar    1  UNL1        0.0367
     26 C         139.6925  143.7464  163.6412 C.ar    1  UNL1        0.0020
     27 C         140.5717  140.9494  164.0049 C.ar    1  UNL1        0.0865
     28 N         140.2583  141.0413  165.4690 N.ar    1  UNL1       -0.2239
     29 C         140.4882  139.8574  166.3608 C.ar    1  UNL1        0.1993
     30 N         141.0315  138.5816  165.7888 N.ar    1  UNL1       -0.2173
     31 C         141.3448  138.4898  164.3247 C.ar    1  UNL1        0.1139
     32 S         141.8695  137.5231  163.3047 S.2     1  UNL1       -0.0679
     33 C         142.0890  138.1184  161.1174 C.ar    1  UNL1        0.0325
     34 C         141.6419  138.6905  162.4300 C.ar    1  UNL1        0.0101
     35 C         141.1149  139.6736  163.4328 C.ar    1  UNL1        0.0421
     36 H         142.5608  140.0767  155.2209 H       1  UNL1        0.1739
     37 H         139.2334  147.1004  160.1176 H       1  UNL1        0.1501
     38 C         142.3508  137.3099  153.9921 C.3     1  UNL1        0.2543
     39 O         143.3538  137.9005  154.9382 O.3     1  UNL1       -0.4553
@<TRIPOS>BOND
     1    38    39    1
     2    39     1    1
     3     1     2   ar
     4     2     3   ar
     5     3     4   ar
     6     4     5   ar
     7     5     6   ar
     8     6     7    1
     9     7     8    1
    10     8     9    2
    11     8    10    2
    12     8    11    1
    13    11    12   ar
    14    12    13   ar
    15    13    14   ar
    16    14    15   ar
    17    15    16   ar
    18    15    17    1
    19    17    18    2
    20    17    19   am
    21    19    20    1
    22    20    21    1
    23    21    22   ar
    24    22    23   ar
    25    23    24   ar
    26    24    25   ar
    27    25    26   ar
    28    25    27    1
    29    27    28   ar
    30    28    29   ar
    31    29    30   ar
    32    30    31   ar
    33    31    32   ar
    34    32    33   ar
    35    33    34   ar
    36    34    35   ar
    37     6     1   ar
    38    16    11   ar
    39    26    21   ar
    40    35    27   ar
    41    33     4    1
    42    35    31   ar
    43     7    36    1
    44    19    37    1
@<TRIPOS>MOLECULE
*****
 39 44 0 0 0
SMALL
GASTEIGER

@<TRIPOS>ATOM
      1 C         146.2514  142.6776  155.4238 C.ar    1  UNL1        0.2400
      2 N         147.2648  142.9450  156.4969 N.ar    1  UNL1       -0.2090
      3 C         146.8730  142.8417  157.9411 C.ar    1  UNL1        0.1026
      4 C         145.5529  142.4934  158.6576 C.ar    1  UNL1        0.0267
      5 C         145.4435  142.4645  157.1618 C.ar    1  UNL1        0.0226
      6 C         144.8461  142.3069  155.7950 C.ar    1  UNL1        0.1178
      7 N         143.8327  142.0395  154.7220 N.pl3   1  UNL1       -0.2104
      8 S         142.5255  141.6946  154.0721 S.O2    1  UNL1        0.0737
      9 O         142.0855  141.5784  152.6428 O.2     1  UNL1       -0.1499
     10 O         143.6202  141.9834  153.0881 O.2     1  UNL1       -0.1499
     11 C         141.0822  141.3138  153.9238 C.ar    1  UNL1        0.1253
     12 C         140.4848  141.1561  152.5570 C.ar    1  UNL1        0.0202
     13 C         139.0415  140.7753  152.4087 C.ar    1  UNL1        0.0015
     14 C         138.1957  140.5522  153.6273 C.ar    1  UNL1        0.0046
     15 C         138.7931  140.7099  154.9940 C.ar    1  UNL1        0.0547
     16 C         140.2364  141.0907  155.1423 C.ar    1  UNL1        0.0247
     17 C         137.6333  140.4039  156.3593 C.2     1  UNL1        0.2461
     18 O         136.3261  140.0590  155.7095 O.2     1  UNL1       -0.2701
     19 N         137.2416  140.3006  157.8036 N.am    1  UNL1       -0.2969
     20 C         137.3509  140.3295  159.2993 C.3     1  UNL1        0.1181
     21 C         137.9484  140.4872  160.6661 C.ar    1  UNL1        0.0167
     22 C         137.3824  140.3379  162.0925 C.ar    1  UNL1        0.0962
     23 N         137.9799  140.4956  163.4593 N.ar    1  UNL1       -0.2425
     24 C         139.4232  140.8764  163.6076 C.ar    1  UNL1        0.1003
     25 C         140.2690  141.0995  162.3891 C.ar    1  UNL1        0.0367
     26 C         138.9618  140.7546  161.7392 C.ar    1  UNL1        0.0020
     27 C         141.7122  141.4803  162.5373 C.ar    1  UNL1        0.0865
     28 N         141.3204  141.3770  163.9816 N.ar    1  UNL1       -0.2239
     29 C         142.3339  141.6444  165.0546 C.ar    1  UNL1        0.1993
     30 N         143.7391  142.0151  164.6835 N.ar    1  UNL1       -0.2173
     31 C         144.1309  142.1184  163.2392 C.ar    1  UNL1        0.1139
     32 S         145.3155  142.4309  162.3736 S.2     1  UNL1       -0.0679
     33 C         145.1611  142.3901  160.1018 C.ar    1  UNL1        0.0325
     34 C         144.3152  142.1670  161.3203 C.ar    1  UNL1        0.0101
     35 C         143.1175  141.8510  162.1661 C.ar    1  UNL1        0.0421
     36 H         144.3878  142.1859  153.9222 H       1  UNL1        0.1739
     37 H         136.2943  140.0507  157.7063 H       1  UNL1        0.1501
     38 C         147.1909  141.5822  153.2634 C.3     1  UNL1        0.2543
     39 O         146.6432  142.7809  153.9797 O.3     1  UNL1       -0.4553
@<TRIPOS>BOND
     1    38    39    1
     2    39     1    1
     3     1     2   ar
     4     2     3   ar
     5     3     4   ar
     6     4     5   ar
     7     5     6   ar
     8     6     7    1
     9     7     8    1
    10     8     9    2
    11     8    10    2
    12     8    11    1
    13    11    12   ar
    14    12    13   ar
    15    13    14   ar
    16    14    15   ar
    17    15    16   ar
    18    15    17    1
    19    17    18    2
    20    17    19   am
    21    19    20    1
    22    20    21    1
    23    21    22   ar
    24    22    23   ar
    25    23    24   ar
    26    24    25   ar
    27    25    26   ar
    28    25    27    1
    29    27    28   ar
    30    28    29   ar
    31    29    30   ar
    32    30    31   ar
    33    31    32   ar
    34    32    33   ar
    35    33    34   ar
    36    34    35   ar
    37     6     1   ar
    38    16    11   ar
    39    26    21   ar
    40    35    27   ar
    41    33     4    1
    42    35    31   ar
    43     7    36    1
    44    19    37    1
