@<TRIPOS>MOLECULE
*****
 28 31 0 0 0
SMALL
GASTEIGER

@<TRIPOS>ATOM
      1 C         141.4344  143.6122  162.7495 C.3     1  UNL1        0.0035
      2 C         140.2257  143.7690  163.6237 C.3     1  UNL1        0.0215
      3 C         140.2756  143.3322  165.0579 C.3     1  UNL1        0.0922
      4 N         141.5342  142.7387  165.6178 N.pl3   1  UNL1       -0.2932
      5 C         142.7429  142.5819  164.7435 C.3     1  UNL1        0.0922
      6 C         142.6930  143.0187  163.3094 C.3     1  UNL1        0.0215
      7 C         141.5841  142.3019  167.0519 C.ar    1  UNL1        0.1352
      8 C         140.3915  141.6403  167.6763 C.ar    1  UNL1        0.0640
      9 C         140.4414  141.2035  169.1105 C.ar    1  UNL1        0.1532
     10 N         141.6839  141.4283  169.9202 N.ar    1  UNL1       -0.2203
     11 C         142.8765  142.0899  169.2957 C.ar    1  UNL1        0.1417
     12 C         144.1191  142.3147  170.1054 C.3     1  UNL1        0.0737
     13 N         142.8266  142.5267  167.8616 N.ar    1  UNL1       -0.2160
     14 C         139.2487  140.5419  169.7349 C.1     1  UNL1        0.1199
     15 N         138.0561  139.8804  170.3593 N.1     1  UNL1       -0.1893
     16 N         141.2847  144.9225  158.4471 N.pl3   1  UNL1       -0.2782
     17 C         142.3171  143.9301  158.8934 C.3     1  UNL1        0.0936
     18 C         142.3670  143.4933  160.3275 C.3     1  UNL1        0.0216
     19 C         141.3845  144.0490  161.3154 C.3     1  UNL1        0.0035
     20 C         140.3521  145.0414  160.8691 C.3     1  UNL1        0.0216
     21 C         140.3022  145.4782  159.4349 C.3     1  UNL1        0.0936
     22 C         141.0851  146.6696  152.7105 C.3     1  UNL1        0.0343
     23 C         141.1350  146.2328  154.1447 C.ar    1  UNL1        0.0166
     24 C         140.1295  146.7604  155.1248 C.ar    1  UNL1        0.0991
     25 N         140.1794  146.3236  156.5589 N.ar    1  UNL1       -0.2124
     26 C         141.2348  145.3593  157.0130 C.ar    1  UNL1        0.2202
     27 N         142.2403  144.8318  156.0329 N.ar    1  UNL1       -0.2124
     28 C         142.1904  145.2685  154.5987 C.ar    1  UNL1        0.0991
@<TRIPOS>BOND
     1    22    23    1
     2    23    24   ar
     3    24    25   ar
     4    25    26   ar
     5    26    16    1
     6    16    17    1
     7    17    18    1
     8    18    19    1
     9    19     1    1
    10     1     2    1
    11     2     3    1
    12     3     4    1
    13     4     7    1
    14     7     8   ar
    15     8     9   ar
    16     9    14    1
    17    14    15    3
    18     9    10   ar
    19    10    11   ar
    20    11    12    1
    21    11    13   ar
    22     4     5    1
    23     5     6    1
    24    19    20    1
    25    20    21    1
    26    26    27   ar
    27    27    28   ar
    28    28    23   ar
    29    21    16    1
    30     6     1    1
    31    13     7   ar
@<TRIPOS>MOLECULE
*****
 28 31 0 0 0
SMALL
GASTEIGER

@<TRIPOS>ATOM
      1 C         139.6478  142.9596  161.6577 C.3     1  UNL1        0.0035
      2 C         138.3558  142.2750  161.9924 C.3     1  UNL1        0.0215
      3 C         138.2013  141.5649  163.3046 C.3     1  UNL1        0.0922
      4 N         139.3387  141.5393  164.2821 N.pl3   1  UNL1       -0.2932
      5 C         140.6307  142.2239  163.9474 C.3     1  UNL1        0.0922
      6 C         140.7853  142.9340  162.6352 C.3     1  UNL1        0.0215
      7 C         139.1842  140.8292  165.5943 C.ar    1  UNL1        0.1352
      8 C         139.9357  141.3098  166.8002 C.ar    1  UNL1        0.0640
      9 C         139.7811  140.5997  168.1124 C.ar    1  UNL1        0.1532
     10 N         138.8751  139.4090  168.2187 N.ar    1  UNL1       -0.2203
     11 C         138.1236  138.9284  167.0127 C.ar    1  UNL1        0.1417
     12 C         137.2176  137.7376  167.1190 C.3     1  UNL1        0.0737
     13 N         138.2782  139.6385  165.7006 N.ar    1  UNL1       -0.2160
     14 C         140.5326  141.0803  169.3184 C.1     1  UNL1        0.1199
     15 N         141.2841  141.5609  170.5243 N.1     1  UNL1       -0.1893
     16 N         140.1115  145.0899  157.7211 N.pl3   1  UNL1       -0.2782
     17 C         140.5637  145.7508  158.9894 C.3     1  UNL1        0.0936
     18 C         140.4092  145.0407  160.3016 C.3     1  UNL1        0.0216
     19 C         139.8024  143.6697  160.3455 C.3     1  UNL1        0.0035
     20 C         139.3502  143.0087  159.0772 C.3     1  UNL1        0.0216
     21 C         139.5047  143.7188  157.7650 C.3     1  UNL1        0.0936
     22 C         140.7297  147.9304  152.4723 C.3     1  UNL1        0.0343
     23 C         140.5751  147.2202  153.7845 C.ar    1  UNL1        0.0166
     24 C         141.3451  145.9609  154.0511 C.ar    1  UNL1        0.0991
     25 N         141.1906  145.2508  155.3633 N.ar    1  UNL1       -0.2124
     26 C         140.2660  145.8000  156.4089 C.ar    1  UNL1        0.2202
     27 N         139.4960  147.0594  156.1424 N.ar    1  UNL1       -0.2124
     28 C         139.6505  147.7695  154.8302 C.ar    1  UNL1        0.0991
@<TRIPOS>BOND
     1    22    23    1
     2    23    24   ar
     3    24    25   ar
     4    25    26   ar
     5    26    16    1
     6    16    17    1
     7    17    18    1
     8    18    19    1
     9    19     1    1
    10     1     2    1
    11     2     3    1
    12     3     4    1
    13     4     7    1
    14     7     8   ar
    15     8     9   ar
    16     9    14    1
    17    14    15    3
    18     9    10   ar
    19    10    11   ar
    20    11    12    1
    21    11    13   ar
    22     4     5    1
    23     5     6    1
    24    19    20    1
    25    20    21    1
    26    26    27   ar
    27    27    28   ar
    28    28    23   ar
    29    21    16    1
    30     6     1    1
    31    13     7   ar
@<TRIPOS>MOLECULE
*****
 28 31 0 0 0
SMALL
GASTEIGER

@<TRIPOS>ATOM
      1 C         143.3682  141.1951  162.6615 C.3     1  UNL1        0.0035
      2 C         142.2434  140.3375  163.1608 C.3     1  UNL1        0.0215
      3 C         141.8948  140.3322  164.6197 C.3     1  UNL1        0.0922
      4 N         142.6711  141.1845  165.5794 N.pl3   1  UNL1       -0.2932
      5 C         143.7959  142.0420  165.0801 C.3     1  UNL1        0.0922
      6 C         144.1445  142.0473  163.6212 C.3     1  UNL1        0.0215
      7 C         142.3225  141.1792  167.0383 C.ar    1  UNL1        0.1352
      8 C         141.6748  142.3813  167.6591 C.ar    1  UNL1        0.0640
      9 C         141.3263  142.3760  169.1180 C.ar    1  UNL1        0.1532
     10 N         141.6255  141.1685  169.9562 N.ar    1  UNL1       -0.2203
     11 C         142.2732  139.9664  169.3355 C.ar    1  UNL1        0.1417
     12 C         142.5724  138.7589  170.1737 C.3     1  UNL1        0.0737
     13 N         142.6217  139.9717  167.8765 N.ar    1  UNL1       -0.2160
     14 C         140.6786  143.5782  169.7388 C.1     1  UNL1        0.1199
     15 N         140.0308  144.7803  170.3595 N.1     1  UNL1       -0.1893
     16 N         144.4138  141.2110  158.2847 N.pl3   1  UNL1       -0.2782
     17 C         144.7521  142.3952  159.1410 C.3     1  UNL1        0.0936
     18 C         144.4036  142.3899  160.5999 C.3     1  UNL1        0.0216
     19 C         143.7167  141.2004  161.2026 C.3     1  UNL1        0.0035
     20 C         143.3784  140.0162  160.3464 C.3     1  UNL1        0.0216
     21 C         143.7269  140.0215  158.8874 C.3     1  UNL1        0.0936
     22 C         145.8080  141.2322  152.4490 C.3     1  UNL1        0.0343
     23 C         145.4594  141.2269  153.9079 C.ar    1  UNL1        0.0166
     24 C         145.5457  139.9530  154.6950 C.ar    1  UNL1        0.0991
     25 N         145.1972  139.9477  156.1540 N.ar    1  UNL1       -0.2124
     26 C         144.7624  141.2163  156.8258 C.ar    1  UNL1        0.2202
     27 N         144.6761  142.4902  156.0387 N.ar    1  UNL1       -0.2124
     28 C         145.0246  142.4956  154.5798 C.ar    1  UNL1        0.0991
@<TRIPOS>BOND
     1    22    23    1
     2    23    24   ar
     3    24    25   ar
     4    25    26   ar
     5    26    16    1
     6    16    17    1
     7    17    18    1
     8    18    19    1
     9    19     1    1
    10     1     2    1
    11     2     3    1
    12     3     4    1
    13     4     7    1
    14     7     8   ar
    15     8     9   ar
    16     9    14    1
    17    14    15    3
    18     9    10   ar
    19    10    11   ar
    20    11    12    1
    21    11    13   ar
    22     4     5    1
    23     5     6    1
    24    19    20    1
    25    20    21    1
    26    26    27   ar
    27    27    28   ar
    28    28    23   ar
    29    21    16    1
    30     6     1    1
    31    13     7   ar
@<TRIPOS>MOLECULE
*****
 28 31 0 0 0
SMALL
GASTEIGER

@<TRIPOS>ATOM
      1 C         141.3967  139.0913  162.3706 C.3     1  UNL1        0.0035
      2 C         141.8348  138.1346  163.4395 C.3     1  UNL1        0.0215
      3 C         141.7999  138.5520  164.8799 C.3     1  UNL1        0.0922
      4 N         141.3269  139.9261  165.2512 N.pl3   1  UNL1       -0.2932
      5 C         140.8888  140.8828  164.1823 C.3     1  UNL1        0.0922
      6 C         140.9237  140.4654  162.7419 C.3     1  UNL1        0.0215
      7 C         141.2920  140.3436  166.6915 C.ar    1  UNL1        0.1352
      8 C         140.0943  140.0241  167.5362 C.ar    1  UNL1        0.0640
      9 C         140.0594  140.4415  168.9765 C.ar    1  UNL1        0.1532
     10 N         141.2222  141.1784  169.5722 N.ar    1  UNL1       -0.2203
     11 C         142.4198  141.4979  168.7275 C.ar    1  UNL1        0.1417
     12 C         143.5827  142.2349  169.3232 C.3     1  UNL1        0.0737
     13 N         142.4547  141.0805  167.2872 N.ar    1  UNL1       -0.2160
     14 C         138.8617  140.1219  169.8212 C.1     1  UNL1        0.1199
     15 N         137.6640  139.8025  170.6658 N.1     1  UNL1       -0.1893
     16 N         141.5014  137.8390  158.0496 N.pl3   1  UNL1       -0.2782
     17 C         142.7134  137.6539  158.9137 C.3     1  UNL1        0.0936
     18 C         142.6785  138.0713  160.3540 C.3     1  UNL1        0.0216
     19 C         141.4316  138.6738  160.9302 C.3     1  UNL1        0.0035
     20 C         140.2196  138.8589  160.0661 C.3     1  UNL1        0.0216
     21 C         140.2545  138.4415  158.6258 C.3     1  UNL1        0.0936
     22 C         141.6411  136.1693  152.2883 C.3     1  UNL1        0.0343
     23 C         141.6062  136.5867  153.7286 C.ar    1  UNL1        0.0166
     24 C         142.2373  135.7187  154.7765 C.ar    1  UNL1        0.0991
     25 N         142.2024  136.1361  156.2169 N.ar    1  UNL1       -0.2124
     26 C         141.5363  137.4216  156.6093 C.ar    1  UNL1        0.2202
     27 N         140.9052  138.2896  155.5613 N.ar    1  UNL1       -0.2124
     28 C         140.9401  137.8722  154.1210 C.ar    1  UNL1        0.0991
@<TRIPOS>BOND
     1    22    23    1
     2    23    24   ar
     3    24    25   ar
     4    25    26   ar
     5    26    16    1
     6    16    17    1
     7    17    18    1
     8    18    19    1
     9    19     1    1
    10     1     2    1
    11     2     3    1
    12     3     4    1
    13     4     7    1
    14     7     8   ar
    15     8     9   ar
    16     9    14    1
    17    14    15    3
    18     9    10   ar
    19    10    11   ar
    20    11    12    1
    21    11    13   ar
    22     4     5    1
    23     5     6    1
    24    19    20    1
    25    20    21    1
    26    26    27   ar
    27    27    28   ar
    28    28    23   ar
    29    21    16    1
    30     6     1    1
    31    13     7   ar
@<TRIPOS>MOLECULE
*****
 28 31 0 0 0
SMALL
GASTEIGER

@<TRIPOS>ATOM
      1 C         143.1956  141.4235  163.1296 C.3     1  UNL1        0.0035
      2 C         143.4049  140.2598  164.0527 C.3     1  UNL1        0.0215
      3 C         143.0246  140.3723  165.4994 C.3     1  UNL1        0.0922
      4 N         142.4352  141.6483  166.0229 N.pl3   1  UNL1       -0.2932
      5 C         142.2259  142.8119  165.0998 C.3     1  UNL1        0.0922
      6 C         142.6062  142.6995  163.6532 C.3     1  UNL1        0.0215
      7 C         142.0549  141.7608  167.4696 C.ar    1  UNL1        0.1352
      8 C         140.8140  141.0854  167.9736 C.ar    1  UNL1        0.0640
      9 C         140.4338  141.1978  169.4202 C.ar    1  UNL1        0.1532
     10 N         141.2944  141.9856  170.3628 N.ar    1  UNL1       -0.2203
     11 C         142.5353  142.6610  169.8589 C.ar    1  UNL1        0.1417
     12 C         143.3961  143.4488  170.8015 C.3     1  UNL1        0.0737
     13 N         142.9156  142.5485  168.4122 N.ar    1  UNL1       -0.2160
     14 C         139.1928  140.5224  169.9242 C.1     1  UNL1        0.1199
     15 N         137.9519  139.8471  170.4281 N.1     1  UNL1       -0.1893
     16 N         144.3363  141.0862  158.7897 N.pl3   1  UNL1       -0.2782
     17 C         143.8356  139.8812  159.5294 C.3     1  UNL1        0.0936
     18 C         143.4553  139.9936  160.9760 C.3     1  UNL1        0.0216
     19 C         143.5759  141.3110  161.6830 C.3     1  UNL1        0.0035
     20 C         144.0767  142.5160  160.9433 C.3     1  UNL1        0.0216
     21 C         144.4569  142.4036  159.4967 C.3     1  UNL1        0.0936
     22 C         145.8573  140.6364  153.0031 C.3     1  UNL1        0.0343
     23 C         145.4771  140.7489  154.4498 C.ar    1  UNL1        0.0166
     24 C         145.6733  142.0453  155.1782 C.ar    1  UNL1        0.0991
     25 N         145.2930  142.1577  156.6249 N.ar    1  UNL1       -0.2124
     26 C         144.7166  140.9737  157.3431 C.ar    1  UNL1        0.2202
     27 N         144.5204  139.6773  156.6146 N.ar    1  UNL1       -0.2124
     28 C         144.9006  139.5649  155.1679 C.ar    1  UNL1        0.0991
@<TRIPOS>BOND
     1    22    23    1
     2    23    24   ar
     3    24    25   ar
     4    25    26   ar
     5    26    16    1
     6    16    17    1
     7    17    18    1
     8    18    19    1
     9    19     1    1
    10     1     2    1
    11     2     3    1
    12     3     4    1
    13     4     7    1
    14     7     8   ar
    15     8     9   ar
    16     9    14    1
    17    14    15    3
    18     9    10   ar
    19    10    11   ar
    20    11    12    1
    21    11    13   ar
    22     4     5    1
    23     5     6    1
    24    19    20    1
    25    20    21    1
    26    26    27   ar
    27    27    28   ar
    28    28    23   ar
    29    21    16    1
    30     6     1    1
    31    13     7   ar
@<TRIPOS>MOLECULE
*****
 28 31 0 0 0
SMALL
GASTEIGER

@<TRIPOS>ATOM
      1 C         141.0987  143.2994  163.3746 C.3     1  UNL1        0.0035
      2 C         140.0010  143.7406  164.2968 C.3     1  UNL1        0.0215
      3 C         139.9881  143.2769  165.7232 C.3     1  UNL1        0.0922
      4 N         141.0728  142.3720  166.2276 N.pl3   1  UNL1       -0.2932
      5 C         142.1705  141.9308  165.3055 C.3     1  UNL1        0.0922
      6 C         142.1835  142.3945  163.8790 C.3     1  UNL1        0.0215
      7 C         141.0599  141.9083  167.6541 C.ar    1  UNL1        0.1352
      8 C         141.8066  140.6680  168.0463 C.ar    1  UNL1        0.0640
      9 C         141.7937  140.2043  169.4728 C.ar    1  UNL1        0.1532
     10 N         141.0340  140.9809  170.5070 N.ar    1  UNL1       -0.2203
     11 C         140.2872  142.2212  170.1147 C.ar    1  UNL1        0.1417
     12 C         139.5274  142.9979  171.1490 C.3     1  UNL1        0.0737
     13 N         140.3002  142.6849  168.6883 N.ar    1  UNL1       -0.2160
     14 C         142.5405  138.9639  169.8650 C.1     1  UNL1        0.1199
     15 N         143.2873  137.7236  170.2572 N.1     1  UNL1       -0.1893
     16 N         141.1376  144.6905  159.0952 N.pl3   1  UNL1       -0.2782
     17 C         140.3983  145.4806  160.1340 C.3     1  UNL1        0.0936
     18 C         140.3854  145.0169  161.5605 C.3     1  UNL1        0.0216
     19 C         141.1117  143.7631  161.9482 C.3     1  UNL1        0.0035
     20 C         141.8510  142.9730  160.9094 C.3     1  UNL1        0.0216
     21 C         141.8639  143.4367  159.4829 C.3     1  UNL1        0.0936
     22 C         141.1894  146.5453  153.3894 C.3     1  UNL1        0.0343
     23 C         141.1765  146.0816  154.8158 C.ar    1  UNL1        0.0166
     24 C         142.1929  145.0856  155.2899 C.ar    1  UNL1        0.0991
     25 N         142.1799  144.6219  156.7164 N.ar    1  UNL1       -0.2124
     26 C         141.1505  145.1542  157.6688 C.ar    1  UNL1        0.2202
     27 N         140.1341  146.1502  157.1946 N.ar    1  UNL1       -0.2124
     28 C         140.1471  146.6139  155.7682 C.ar    1  UNL1        0.0991
@<TRIPOS>BOND
     1    22    23    1
     2    23    24   ar
     3    24    25   ar
     4    25    26   ar
     5    26    16    1
     6    16    17    1
     7    17    18    1
     8    18    19    1
     9    19     1    1
    10     1     2    1
    11     2     3    1
    12     3     4    1
    13     4     7    1
    14     7     8   ar
    15     8     9   ar
    16     9    14    1
    17    14    15    3
    18     9    10   ar
    19    10    11   ar
    20    11    12    1
    21    11    13   ar
    22     4     5    1
    23     5     6    1
    24    19    20    1
    25    20    21    1
    26    26    27   ar
    27    27    28   ar
    28    28    23   ar
    29    21    16    1
    30     6     1    1
    31    13     7   ar
@<TRIPOS>MOLECULE
*****
 28 31 0 0 0
SMALL
GASTEIGER

@<TRIPOS>ATOM
      1 C         140.9054  139.3313  163.2589 C.3     1  UNL1        0.0035
      2 C         139.9213  140.4038  163.6213 C.3     1  UNL1        0.0215
      3 C         139.7307  140.7926  165.0574 C.3     1  UNL1        0.0922
      4 N         140.5240  140.1089  166.1312 N.pl3   1  UNL1       -0.2932
      5 C         141.5080  139.0363  165.7688 C.3     1  UNL1        0.0922
      6 C         141.6987  138.6476  164.3327 C.3     1  UNL1        0.0215
      7 C         140.3333  140.4976  167.5673 C.ar    1  UNL1        0.1352
      8 C         141.2944  141.4452  168.2217 C.ar    1  UNL1        0.0640
      9 C         141.1037  141.8340  169.6579 C.ar    1  UNL1        0.1532
     10 N         139.9520  141.2752  170.4396 N.ar    1  UNL1       -0.2203
     11 C         138.9909  140.3276  169.7852 C.ar    1  UNL1        0.1417
     12 C         137.8391  139.7687  170.5669 C.3     1  UNL1        0.0737
     13 N         139.1816  139.9388  168.3490 N.ar    1  UNL1       -0.2160
     14 C         142.0649  142.7817  170.3123 C.1     1  UNL1        0.1199
     15 N         143.0260  143.7293  170.9666 N.1     1  UNL1       -0.1893
     16 N         141.4774  138.1650  158.9505 N.pl3   1  UNL1       -0.2782
     17 C         142.6606  138.2472  159.8687 C.3     1  UNL1        0.0936
     18 C         142.4700  138.6360  161.3048 C.3     1  UNL1        0.0216
     19 C         141.0960  138.9425  161.8228 C.3     1  UNL1        0.0035
     20 C         139.9128  138.8603  160.9046 C.3     1  UNL1        0.0216
     21 C         140.1035  138.4715  159.4684 C.3     1  UNL1        0.0936
     22 C         142.2401  136.6099  153.2059 C.3     1  UNL1        0.0343
     23 C         142.0494  136.9987  154.6421 C.ar    1  UNL1        0.0166
     24 C         143.2004  136.9167  155.6004 C.ar    1  UNL1        0.0991
     25 N         143.0097  137.3055  157.0365 N.ar    1  UNL1       -0.2124
     26 C         141.6681  137.7762  157.5143 C.ar    1  UNL1        0.2202
     27 N         140.5171  137.8582  156.5560 N.ar    1  UNL1       -0.2124
     28 C         140.7078  137.4694  155.1198 C.ar    1  UNL1        0.0991
@<TRIPOS>BOND
     1    22    23    1
     2    23    24   ar
     3    24    25   ar
     4    25    26   ar
     5    26    16    1
     6    16    17    1
     7    17    18    1
     8    18    19    1
     9    19     1    1
    10     1     2    1
    11     2     3    1
    12     3     4    1
    13     4     7    1
    14     7     8   ar
    15     8     9   ar
    16     9    14    1
    17    14    15    3
    18     9    10   ar
    19    10    11   ar
    20    11    12    1
    21    11    13   ar
    22     4     5    1
    23     5     6    1
    24    19    20    1
    25    20    21    1
    26    26    27   ar
    27    27    28   ar
    28    28    23   ar
    29    21    16    1
    30     6     1    1
    31    13     7   ar
@<TRIPOS>MOLECULE
*****
 28 31 0 0 0
SMALL
GASTEIGER

@<TRIPOS>ATOM
      1 C         143.0404  141.1641  161.4458 C.3     1  UNL1        0.0035
      2 C         143.1633  139.9091  162.2581 C.3     1  UNL1        0.0215
      3 C         142.4751  139.8053  163.5869 C.3     1  UNL1        0.0922
      4 N         141.6641  140.9565  164.1034 N.pl3   1  UNL1       -0.2932
      5 C         141.5412  142.2115  163.2912 C.3     1  UNL1        0.0922
      6 C         142.2293  142.3153  161.9624 C.3     1  UNL1        0.0215
      7 C         140.9759  140.8527  165.4322 C.ar    1  UNL1        0.1352
      8 C         139.8717  139.8567  165.6292 C.ar    1  UNL1        0.0640
      9 C         139.1836  139.7529  166.9580 C.ar    1  UNL1        0.1532
     10 N         139.5996  140.6450  168.0898 N.ar    1  UNL1       -0.2203
     11 C         140.7038  141.6410  167.8928 C.ar    1  UNL1        0.1417
     12 C         141.1199  142.5331  169.0246 C.3     1  UNL1        0.0737
     13 N         141.3920  141.7448  166.5640 N.ar    1  UNL1       -0.2160
     14 C         138.0793  138.7570  167.1549 C.1     1  UNL1        0.1199
     15 N         136.9751  137.7611  167.3519 N.1     1  UNL1       -0.1893
     16 N         145.1048  141.4755  157.4595 N.pl3   1  UNL1       -0.2782
     17 C         145.2271  142.5895  158.4565 C.3     1  UNL1        0.0936
     18 C         144.5390  142.4857  159.7853 C.3     1  UNL1        0.0216
     19 C         143.7285  141.2679  160.1171 C.3     1  UNL1        0.0035
     20 C         143.6062  140.1539  159.1201 C.3     1  UNL1        0.0216
     21 C         144.2944  140.2577  157.7913 C.3     1  UNL1        0.0936
     22 C         147.8574  141.8907  152.1443 C.3     1  UNL1        0.0343
     23 C         147.1693  141.7869  153.4731 C.ar    1  UNL1        0.0166
     24 C         147.8411  142.3089  154.7085 C.ar    1  UNL1        0.0991
     25 N         147.1530  142.2051  156.0373 N.ar    1  UNL1       -0.2124
     26 C         145.7930  141.5793  156.1307 C.ar    1  UNL1        0.2202
     27 N         145.1211  141.0573  154.8953 N.ar    1  UNL1       -0.2124
     28 C         145.8093  141.1611  153.5666 C.ar    1  UNL1        0.0991
@<TRIPOS>BOND
     1    22    23    1
     2    23    24   ar
     3    24    25   ar
     4    25    26   ar
     5    26    16    1
     6    16    17    1
     7    17    18    1
     8    18    19    1
     9    19     1    1
    10     1     2    1
    11     2     3    1
    12     3     4    1
    13     4     7    1
    14     7     8   ar
    15     8     9   ar
    16     9    14    1
    17    14    15    3
    18     9    10   ar
    19    10    11   ar
    20    11    12    1
    21    11    13   ar
    22     4     5    1
    23     5     6    1
    24    19    20    1
    25    20    21    1
    26    26    27   ar
    27    27    28   ar
    28    28    23   ar
    29    21    16    1
    30     6     1    1
    31    13     7   ar
@<TRIPOS>MOLECULE
*****
 28 31 0 0 0
SMALL
GASTEIGER

@<TRIPOS>ATOM
      1 C         139.1892  141.1547  163.1573 C.3     1  UNL1        0.0035
      2 C         139.1901  142.4087  163.9804 C.3     1  UNL1        0.0215
      3 C         139.5900  142.3573  165.4252 C.3     1  UNL1        0.0922
      4 N         139.9890  141.0519  166.0469 N.pl3   1  UNL1       -0.2932
      5 C         139.9881  139.7979  165.2239 C.3     1  UNL1        0.0922
      6 C         139.5882  139.8493  163.7791 C.3     1  UNL1        0.0215
      7 C         140.3889  141.0005  167.4917 C.ar    1  UNL1        0.1352
      8 C         141.2756  139.8961  167.9857 C.ar    1  UNL1        0.0640
      9 C         141.6755  139.8446  169.4304 C.ar    1  UNL1        0.1532
     10 N         141.1887  140.8977  170.3813 N.ar    1  UNL1       -0.2203
     11 C         140.3021  142.0021  169.8874 C.ar    1  UNL1        0.1417
     12 C         139.8153  143.0552  170.8382 C.3     1  UNL1        0.0737
     13 N         139.9022  142.0535  168.4426 N.ar    1  UNL1       -0.2160
     14 C         142.5622  138.7401  169.9244 C.1     1  UNL1        0.1199
     15 N         143.4488  137.6357  170.4183 N.1     1  UNL1       -0.1893
     16 N         137.9895  141.3090  158.8229 N.pl3   1  UNL1       -0.2782
     17 C         138.5702  142.5237  159.4841 C.3     1  UNL1        0.0936
     18 C         138.9701  142.4723  160.9289 C.3     1  UNL1        0.0216
     19 C         138.7893  141.2061  161.7125 C.3     1  UNL1        0.0035
     20 C         138.2085  139.9914  161.0514 C.3     1  UNL1        0.0216
     21 C         137.8086  140.0428  159.6066 C.3     1  UNL1        0.0936
     22 C         136.3898  141.5146  153.0438 C.3     1  UNL1        0.0343
     23 C         136.7897  141.4632  154.4886 C.ar    1  UNL1        0.0166
     24 C         138.0121  142.1969  154.9550 C.ar    1  UNL1        0.0991
     25 N         138.4120  142.1454  156.3998 N.ar    1  UNL1       -0.2124
     26 C         137.5896  141.3604  157.3781 C.ar    1  UNL1        0.2202
     27 N         136.3672  140.6267  156.9117 N.ar    1  UNL1       -0.2124
     28 C         135.9673  140.6781  155.4669 C.ar    1  UNL1        0.0991
@<TRIPOS>BOND
     1    22    23    1
     2    23    24   ar
     3    24    25   ar
     4    25    26   ar
     5    26    16    1
     6    16    17    1
     7    17    18    1
     8    18    19    1
     9    19     1    1
    10     1     2    1
    11     2     3    1
    12     3     4    1
    13     4     7    1
    14     7     8   ar
    15     8     9   ar
    16     9    14    1
    17    14    15    3
    18     9    10   ar
    19    10    11   ar
    20    11    12    1
    21    11    13   ar
    22     4     5    1
    23     5     6    1
    24    19    20    1
    25    20    21    1
    26    26    27   ar
    27    27    28   ar
    28    28    23   ar
    29    21    16    1
    30     6     1    1
    31    13     7   ar
