@<TRIPOS>MOLECULE
*****
 33 36 0 0 0
SMALL
GASTEIGER

@<TRIPOS>ATOM
      1 N         141.0857  138.9653  163.5929 N.am    1  UNL1       -0.2555
      2 C         141.9242  139.7545  164.5541 C.3     1  UNL1        0.1197
      3 C         141.4269  140.0142  165.9453 C.3     1  UNL1        0.1160
      4 N         140.0910  139.4845  166.3752 N.am    1  UNL1       -0.2660
      5 C         139.5936  139.7441  167.7663 C.2     1  UNL1        0.2496
      6 O         138.2577  139.2144  168.1962 O.2     1  UNL1       -0.2699
      7 C         139.2524  138.6952  165.4139 C.3     1  UNL1        0.1799
      8 C         139.7498  138.4356  164.0228 C.2     1  UNL1        0.2497
      9 O         138.9112  137.6463  163.0616 O.2     1  UNL1       -0.2727
     10 C         140.4322  140.5334  168.7275 C.ar    1  UNL1        0.0581
     11 C         140.2359  142.0152  168.8523 C.ar    1  UNL1        0.0343
     12 C         141.0745  142.8045  169.8135 C.ar    1  UNL1        0.1425
     13 F         140.8783  144.2863  169.9384 F       1  UNL1       -0.2041
     14 C         142.1093  142.1119  170.6498 C.ar    1  UNL1        0.0592
     15 C         142.3055  140.6300  170.5250 C.ar    1  UNL1        0.1425
     16 F         143.3403  139.9374  171.3613 F       1  UNL1       -0.2041
     17 C         141.4670  139.8408  169.5638 C.ar    1  UNL1        0.0343
     18 C         142.5776  138.1865  159.4195 C.ar    1  UNL1        0.1386
     19 C         141.3492  139.0203  159.6334 C.ar    1  UNL1        0.0382
     20 C         140.8519  139.2799  161.0245 C.ar    1  UNL1        0.0180
     21 C         141.5830  138.7057  162.2017 C.ar    1  UNL1        0.0541
     22 C         142.8114  137.8719  161.9878 C.ar    1  UNL1        0.0180
     23 C         143.3087  137.6123  160.5967 C.ar    1  UNL1        0.0382
     24 O         143.0749  137.9269  158.0283 O.3     1  UNL1       -0.4754
     25 C         142.4336  136.8617  157.1891 C.3     1  UNL1        0.2068
     26 C         143.2859  135.9332  156.3757 C.3     1  UNL1        0.0646
     27 C         142.8379  134.5223  156.1338 C.3     1  UNL1        0.0759
     28 C         143.3778  131.8212  154.3840 C.3     1  UNL1        0.0173
     29 C         143.9690  132.1350  155.7264 C.3     1  UNL1        0.0576
     30 C         144.9122  131.2623  156.5002 C.3     1  UNL1        0.0174
     31 C         145.2470  131.9645  157.7827 C.3     1  UNL1        0.0187
     32 C         144.5107  133.2712  157.8016 C.3     1  UNL1        0.0721
     33 N         143.7208  133.3765  156.5307 N.3     1  UNL1       -0.2738
@<TRIPOS>BOND
     1    29    28    1
     2    29    30    1
     3    30    31    1
     4    31    32    1
     5    32    33    1
     6    33    27    1
     7    27    26    1
     8    26    25    1
     9    25    24    1
    10    24    18    1
    11    18    19   ar
    12    19    20   ar
    13    20    21   ar
    14    21     1    1
    15     1     2    1
    16     2     3    1
    17     3     4    1
    18     4     5   am
    19     5     6    2
    20     5    10    1
    21    10    11   ar
    22    11    12   ar
    23    12    13    1
    24    12    14   ar
    25    14    15   ar
    26    15    16    1
    27    15    17   ar
    28     4     7    1
    29     7     8    1
    30     8     9    2
    31    21    22   ar
    32    22    23   ar
    33    33    29    1
    34    23    18   ar
    35     8     1   am
    36    17    10   ar
@<TRIPOS>MOLECULE
*****
 33 36 0 0 0
SMALL
GASTEIGER

@<TRIPOS>ATOM
      1 N         141.0475  138.9703  163.5081 N.am    1  UNL1       -0.2555
      2 C         141.8784  139.7594  164.4760 C.3     1  UNL1        0.1197
      3 C         141.3783  140.0030  165.8691 C.3     1  UNL1        0.1160
      4 N         140.0473  139.4575  166.2943 N.am    1  UNL1       -0.2660
      5 C         139.5472  139.7010  167.6873 C.2     1  UNL1        0.2496
      6 O         138.2162  139.1554  168.1124 O.2     1  UNL1       -0.2699
      7 C         139.2163  138.6683  165.3263 C.3     1  UNL1        0.1799
      8 C         139.7164  138.4248  163.9333 C.2     1  UNL1        0.2497
      9 O         138.8855  137.6356  162.9653 O.2     1  UNL1       -0.2727
     10 C         140.3781  140.4901  168.6551 C.ar    1  UNL1        0.0581
     11 C         141.4220  139.8011  169.4831 C.ar    1  UNL1        0.0343
     12 C         142.2529  140.5903  170.4510 C.ar    1  UNL1        0.1425
     13 F         143.2968  139.9012  171.2790 F       1  UNL1       -0.2041
     14 C         142.0400  142.0685  170.5909 C.ar    1  UNL1        0.0592
     15 C         140.9961  142.7575  169.7629 C.ar    1  UNL1        0.1425
     16 F         140.7832  144.2357  169.9028 F       1  UNL1       -0.2041
     17 C         140.1652  141.9684  168.7951 C.ar    1  UNL1        0.0343
     18 C         142.5477  138.2395  159.3290 C.ar    1  UNL1        0.1386
     19 C         143.2633  137.6331  160.4995 C.ar    1  UNL1        0.0382
     20 C         142.7632  137.8767  161.8925 C.ar    1  UNL1        0.0180
     21 C         141.5475  138.7267  162.1150 C.ar    1  UNL1        0.0541
     22 C         140.8319  139.3332  160.9446 C.ar    1  UNL1        0.0180
     23 C         141.3320  139.0896  159.5515 C.ar    1  UNL1        0.0382
     24 O         143.0478  137.9959  157.9359 O.3     1  UNL1       -0.4754
     25 C         142.3705  136.9818  157.0625 C.3     1  UNL1        0.2068
     26 C         143.1831  136.1316  156.1314 C.3     1  UNL1        0.0646
     27 C         143.7273  134.8149  156.6004 C.3     1  UNL1        0.0759
     28 C         144.6059  131.8096  157.5199 C.3     1  UNL1        0.0173
     29 C         143.4316  132.1588  156.6544 C.3     1  UNL1        0.0576
     30 C         142.4550  131.1880  156.0597 C.3     1  UNL1        0.0174
     31 C         141.4475  131.9694  155.2694 C.3     1  UNL1        0.0187
     32 C         141.8015  133.4231  155.3758 C.3     1  UNL1        0.0721
     33 N         143.0278  133.5402  156.2318 N.3     1  UNL1       -0.2738
@<TRIPOS>BOND
     1    29    28    1
     2    29    30    1
     3    30    31    1
     4    31    32    1
     5    32    33    1
     6    33    27    1
     7    27    26    1
     8    26    25    1
     9    25    24    1
    10    24    18    1
    11    18    19   ar
    12    19    20   ar
    13    20    21   ar
    14    21     1    1
    15     1     2    1
    16     2     3    1
    17     3     4    1
    18     4     5   am
    19     5     6    2
    20     5    10    1
    21    10    11   ar
    22    11    12   ar
    23    12    13    1
    24    12    14   ar
    25    14    15   ar
    26    15    16    1
    27    15    17   ar
    28     4     7    1
    29     7     8    1
    30     8     9    2
    31    21    22   ar
    32    22    23   ar
    33    33    29    1
    34    23    18   ar
    35     8     1   am
    36    17    10   ar
@<TRIPOS>MOLECULE
*****
 33 36 0 0 0
SMALL
GASTEIGER

@<TRIPOS>ATOM
      1 N         141.3622  139.5150  163.4737 N.am    1  UNL1       -0.2555
      2 C         142.0624  140.3306  164.5198 C.3     1  UNL1        0.1197
      3 C         141.4853  140.4345  165.9005 C.3     1  UNL1        0.1160
      4 N         140.2080  139.7227  166.2350 N.am    1  UNL1       -0.2660
      5 C         139.6309  139.8266  167.6156 C.2     1  UNL1        0.2496
      6 O         138.3536  139.1148  167.9501 O.2     1  UNL1       -0.2699
      7 C         139.5078  138.9071  165.1888 C.3     1  UNL1        0.1799
      8 C         140.0849  138.8032  163.8082 C.2     1  UNL1        0.2497
      9 O         139.3847  137.9875  162.7620 O.2     1  UNL1       -0.2727
     10 C         140.3311  140.6423  168.6617 C.ar    1  UNL1        0.0581
     11 C         140.0914  142.1207  168.7448 C.ar    1  UNL1        0.0343
     12 C         140.7917  142.9363  169.7910 C.ar    1  UNL1        0.1425
     13 F         140.5520  144.4147  169.8741 F       1  UNL1       -0.2041
     14 C         141.7316  142.2736  170.7540 C.ar    1  UNL1        0.0592
     15 C         141.9712  140.7952  170.6709 C.ar    1  UNL1        0.1425
     16 F         142.9111  140.1325  171.6339 F       1  UNL1       -0.2041
     17 C         141.2710  139.9795  169.6248 C.ar    1  UNL1        0.0343
     18 C         143.0934  139.2033  159.3318 C.ar    1  UNL1        0.1386
     19 C         143.8130  138.5853  160.4938 C.ar    1  UNL1        0.0382
     20 C         143.2359  138.6892  161.8744 C.ar    1  UNL1        0.0180
     21 C         141.9393  139.4111  162.0930 C.ar    1  UNL1        0.0541
     22 C         141.2198  140.0290  160.9309 C.ar    1  UNL1        0.0180
     23 C         141.7969  139.9251  159.5503 C.ar    1  UNL1        0.0382
     24 O         143.6705  139.0994  157.9511 O.3     1  UNL1       -0.4754
     25 C         143.8844  140.3379  157.1324 C.3     1  UNL1        0.2068
     26 C         144.7658  141.4360  157.6497 C.3     1  UNL1        0.0646
     27 C         144.1561  142.6960  158.1887 C.3     1  UNL1        0.0759
     28 C         141.5256  144.1420  159.4689 C.3     1  UNL1        0.0173
     29 C         142.6260  143.4730  160.2381 C.3     1  UNL1        0.0576
     30 C         142.7105  143.3513  161.7307 C.3     1  UNL1        0.0174
     31 C         143.9718  142.6114  162.0649 C.3     1  UNL1        0.0187
     32 C         144.6669  142.2759  160.7787 C.3     1  UNL1        0.0721
     33 N         143.8351  142.8084  159.6496 N.3     1  UNL1       -0.2738
@<TRIPOS>BOND
     1    29    28    1
     2    29    30    1
     3    30    31    1
     4    31    32    1
     5    32    33    1
     6    33    27    1
     7    27    26    1
     8    26    25    1
     9    25    24    1
    10    24    18    1
    11    18    19   ar
    12    19    20   ar
    13    20    21   ar
    14    21     1    1
    15     1     2    1
    16     2     3    1
    17     3     4    1
    18     4     5   am
    19     5     6    2
    20     5    10    1
    21    10    11   ar
    22    11    12   ar
    23    12    13    1
    24    12    14   ar
    25    14    15   ar
    26    15    16    1
    27    15    17   ar
    28     4     7    1
    29     7     8    1
    30     8     9    2
    31    21    22   ar
    32    22    23   ar
    33    33    29    1
    34    23    18   ar
    35     8     1   am
    36    17    10   ar
@<TRIPOS>MOLECULE
*****
 33 36 0 0 0
SMALL
GASTEIGER

@<TRIPOS>ATOM
      1 N         141.2959  139.9015  158.4180 N.am    1  UNL1       -0.2555
      2 C         140.7235  138.5458  158.1277 C.3     1  UNL1        0.1197
      3 C         141.4994  137.5660  157.2981 C.3     1  UNL1        0.1160
      4 N         142.8476  137.9421  156.7588 N.am    1  UNL1       -0.2660
      5 C         143.6235  136.9624  155.9292 C.2     1  UNL1        0.2496
      6 O         144.9718  137.3385  155.3899 O.2     1  UNL1       -0.2699
      7 C         143.4200  139.2979  157.0491 C.3     1  UNL1        0.1799
      8 C         142.6441  140.2776  157.8787 C.2     1  UNL1        0.2497
      9 O         143.2165  141.6334  158.1690 O.2     1  UNL1       -0.2727
     10 C         143.0512  135.6067  155.6390 C.ar    1  UNL1        0.0581
     11 C         143.2222  134.4927  156.6288 C.ar    1  UNL1        0.0343
     12 C         142.6498  133.1369  156.3385 C.ar    1  UNL1        0.1425
     13 F         142.8209  132.0230  157.3284 F       1  UNL1       -0.2041
     14 C         141.9064  132.8951  155.0584 C.ar    1  UNL1        0.0592
     15 C         141.7354  134.0091  154.0685 C.ar    1  UNL1        0.1425
     16 F         140.9919  133.7673  152.7884 F       1  UNL1       -0.2041
     17 C         142.3077  135.3648  154.3588 C.ar    1  UNL1        0.0343
     18 C         138.9682  142.8407  160.9066 C.ar    1  UNL1        0.1386
     19 C         138.5210  142.5196  159.5113 C.ar    1  UNL1        0.0382
     20 C         139.2968  141.5399  158.6818 C.ar    1  UNL1        0.0180
     21 C         140.5200  140.8813  159.2476 C.ar    1  UNL1        0.0541
     22 C         140.9673  141.2023  160.6428 C.ar    1  UNL1        0.0180
     23 C         140.1914  142.1820  161.4723 C.ar    1  UNL1        0.0382
     24 O         138.1924  143.8204  161.7362 O.3     1  UNL1       -0.4754
     25 C         137.7276  143.4374  163.1099 C.3     1  UNL1        0.2068
     26 C         137.3185  142.0229  163.3961 C.3     1  UNL1        0.0646
     27 C         137.9521  141.2739  164.5308 C.3     1  UNL1        0.0759
     28 C         138.2919  139.0685  166.9120 C.3     1  UNL1        0.0173
     29 C         138.5056  138.8248  165.4474 C.3     1  UNL1        0.0576
     30 C         138.9131  137.5246  164.8202 C.3     1  UNL1        0.0174
     31 C         139.0088  137.7347  163.3381 C.3     1  UNL1        0.0187
     32 C         138.6604  139.1649  163.0493 C.3     1  UNL1        0.0721
     33 N         138.3494  139.8386  164.3529 N.3     1  UNL1       -0.2738
@<TRIPOS>BOND
     1    29    28    1
     2    29    30    1
     3    30    31    1
     4    31    32    1
     5    32    33    1
     6    33    27    1
     7    27    26    1
     8    26    25    1
     9    25    24    1
    10    24    18    1
    11    18    19   ar
    12    19    20   ar
    13    20    21   ar
    14    21     1    1
    15     1     2    1
    16     2     3    1
    17     3     4    1
    18     4     5   am
    19     5     6    2
    20     5    10    1
    21    10    11   ar
    22    11    12   ar
    23    12    13    1
    24    12    14   ar
    25    14    15   ar
    26    15    16    1
    27    15    17   ar
    28     4     7    1
    29     7     8    1
    30     8     9    2
    31    21    22   ar
    32    22    23   ar
    33    33    29    1
    34    23    18   ar
    35     8     1   am
    36    17    10   ar
@<TRIPOS>MOLECULE
*****
 33 36 0 0 0
SMALL
GASTEIGER

@<TRIPOS>ATOM
      1 N         142.5197  140.9104  163.0828 N.am    1  UNL1       -0.2555
      2 C         141.6302  141.6894  164.0058 C.3     1  UNL1        0.1197
      3 C         141.5807  141.3475  165.4655 C.3     1  UNL1        0.1160
      4 N         142.4207  140.2266  166.0022 N.am    1  UNL1       -0.2660
      5 C         142.3712  139.8847  167.4618 C.2     1  UNL1        0.2496
      6 O         143.2112  138.7638  167.9985 O.2     1  UNL1       -0.2699
      7 C         143.3103  139.4476  165.0791 C.3     1  UNL1        0.1799
      8 C         143.3598  139.7895  163.6195 C.2     1  UNL1        0.2497
      9 O         144.2493  139.0105  162.6964 O.2     1  UNL1       -0.2727
     10 C         141.4817  140.6637  168.3848 C.ar    1  UNL1        0.0581
     11 C         141.8808  142.0406  168.8261 C.ar    1  UNL1        0.0343
     12 C         140.9912  142.8196  169.7491 C.ar    1  UNL1        0.1425
     13 F         141.3902  144.1966  170.1905 F       1  UNL1       -0.2041
     14 C         139.7026  142.2217  170.2308 C.ar    1  UNL1        0.0592
     15 C         139.3036  140.8447  169.7894 C.ar    1  UNL1        0.1425
     16 F         138.0150  140.2467  170.2711 F       1  UNL1       -0.2041
     17 C         140.1931  140.0657  168.8665 C.ar    1  UNL1        0.0343
     18 C         142.6683  141.9360  158.7037 C.ar    1  UNL1        0.1386
     19 C         141.8033  140.8072  159.1807 C.ar    1  UNL1        0.0382
     20 C         141.7538  140.4654  160.6404 C.ar    1  UNL1        0.0180
     21 C         142.5693  141.2523  161.6231 C.ar    1  UNL1        0.0541
     22 C         143.4343  142.3811  161.1461 C.ar    1  UNL1        0.0180
     23 C         143.4838  142.7229  159.6864 C.ar    1  UNL1        0.0382
     24 O         142.7178  142.2779  157.2440 O.3     1  UNL1       -0.4754
     25 C         142.0295  143.5111  156.7388 C.3     1  UNL1        0.2068
     26 C         140.5363  143.6256  156.8258 C.3     1  UNL1        0.0646
     27 C         139.9078  144.4070  157.9413 C.3     1  UNL1        0.0759
     28 C         140.8912  145.1443  160.9643 C.3     1  UNL1        0.0173
     29 C         139.9377  144.0485  160.5899 C.3     1  UNL1        0.0576
     30 C         139.2688  143.0993  161.5394 C.3     1  UNL1        0.0174
     31 C         138.4033  142.1737  160.7367 C.3     1  UNL1        0.0187
     32 C         138.5374  142.5509  159.2911 C.3     1  UNL1        0.0721
     33 N         139.4857  143.7096  159.2004 N.3     1  UNL1       -0.2738
@<TRIPOS>BOND
     1    29    28    1
     2    29    30    1
     3    30    31    1
     4    31    32    1
     5    32    33    1
     6    33    27    1
     7    27    26    1
     8    26    25    1
     9    25    24    1
    10    24    18    1
    11    18    19   ar
    12    19    20   ar
    13    20    21   ar
    14    21     1    1
    15     1     2    1
    16     2     3    1
    17     3     4    1
    18     4     5   am
    19     5     6    2
    20     5    10    1
    21    10    11   ar
    22    11    12   ar
    23    12    13    1
    24    12    14   ar
    25    14    15   ar
    26    15    16    1
    27    15    17   ar
    28     4     7    1
    29     7     8    1
    30     8     9    2
    31    21    22   ar
    32    22    23   ar
    33    33    29    1
    34    23    18   ar
    35     8     1   am
    36    17    10   ar
@<TRIPOS>MOLECULE
*****
 33 36 0 0 0
SMALL
GASTEIGER

@<TRIPOS>ATOM
      1 N         140.2375  140.2938  163.2156 N.am    1  UNL1       -0.2555
      2 C         141.1520  140.9810  164.1859 C.3     1  UNL1        0.1197
      3 C         140.9074  140.8609  165.6610 C.3     1  UNL1        0.1160
      4 N         139.7484  140.0536  166.1658 N.am    1  UNL1       -0.2660
      5 C         139.5039  139.9334  167.6408 C.2     1  UNL1        0.2496
      6 O         138.3448  139.1261  168.1456 O.2     1  UNL1       -0.2699
      7 C         138.8339  139.3663  165.1955 C.3     1  UNL1        0.1799
      8 C         139.0784  139.4865  163.7204 C.2     1  UNL1        0.2497
      9 O         138.1639  138.7992  162.7501 O.2     1  UNL1       -0.2727
     10 C         140.4184  140.6207  168.6110 C.ar    1  UNL1        0.0581
     11 C         141.4627  139.8324  169.3446 C.ar    1  UNL1        0.0343
     12 C         142.3772  140.5197  170.3148 C.ar    1  UNL1        0.1425
     13 F         143.4215  139.7315  171.0484 F       1  UNL1       -0.2041
     14 C         142.2474  141.9952  170.5515 C.ar    1  UNL1        0.0592
     15 C         141.2031  142.7835  169.8179 C.ar    1  UNL1        0.1425
     16 F         141.0733  144.2589  170.0546 F       1  UNL1       -0.2041
     17 C         140.2886  142.0962  168.8477 C.ar    1  UNL1        0.0343
     18 C         140.9709  140.6542  158.7905 C.ar    1  UNL1        0.1386
     19 C         139.8879  141.4640  159.4396 C.ar    1  UNL1        0.0382
     20 C         139.6435  141.3439  160.9146 C.ar    1  UNL1        0.0180
     21 C         140.4820  140.4139  161.7405 C.ar    1  UNL1        0.0541
     22 C         141.5649  139.6041  161.0914 C.ar    1  UNL1        0.0180
     23 C         141.8094  139.7242  159.6164 C.ar    1  UNL1        0.0382
     24 O         141.2154  140.7743  157.3154 O.3     1  UNL1       -0.4754
     25 C         142.4563  141.4511  156.8135 C.3     1  UNL1        0.2068
     26 C         142.6534  142.9207  157.0411 C.3     1  UNL1        0.0646
     27 C         143.3356  143.4017  158.2873 C.3     1  UNL1        0.0759
     28 C         143.7124  142.6171  161.4324 C.3     1  UNL1        0.0173
     29 C         142.6952  143.5694  160.8770 C.3     1  UNL1        0.0576
     30 C         141.6726  144.3282  161.6698 C.3     1  UNL1        0.0174
     31 C         140.8674  145.1579  160.7141 C.3     1  UNL1        0.0187
     32 C         141.3924  144.9118  159.3307 C.3     1  UNL1        0.0721
     33 N         142.5220  143.9300  159.4314 N.3     1  UNL1       -0.2738
@<TRIPOS>BOND
     1    29    28    1
     2    29    30    1
     3    30    31    1
     4    31    32    1
     5    32    33    1
     6    33    27    1
     7    27    26    1
     8    26    25    1
     9    25    24    1
    10    24    18    1
    11    18    19   ar
    12    19    20   ar
    13    20    21   ar
    14    21     1    1
    15     1     2    1
    16     2     3    1
    17     3     4    1
    18     4     5   am
    19     5     6    2
    20     5    10    1
    21    10    11   ar
    22    11    12   ar
    23    12    13    1
    24    12    14   ar
    25    14    15   ar
    26    15    16    1
    27    15    17   ar
    28     4     7    1
    29     7     8    1
    30     8     9    2
    31    21    22   ar
    32    22    23   ar
    33    33    29    1
    34    23    18   ar
    35     8     1   am
    36    17    10   ar
@<TRIPOS>MOLECULE
*****
 33 36 0 0 0
SMALL
GASTEIGER

@<TRIPOS>ATOM
      1 N         141.2526  139.8945  158.5039 N.am    1  UNL1       -0.2555
      2 C         140.6591  138.5540  158.1864 C.3     1  UNL1        0.1197
      3 C         141.4286  137.5711  157.3546 C.3     1  UNL1        0.1160
      4 N         142.7915  137.9287  156.8403 N.am    1  UNL1       -0.2660
      5 C         143.5610  136.9459  156.0085 C.2     1  UNL1        0.2496
      6 O         144.9239  137.3036  155.4941 O.2     1  UNL1       -0.2699
      7 C         143.3850  139.2693  157.1578 C.3     1  UNL1        0.1799
      8 C         142.6155  140.2521  157.9896 C.2     1  UNL1        0.2497
      9 O         143.2090  141.5927  158.3071 O.2     1  UNL1       -0.2727
     10 C         142.9675  135.6054  155.6910 C.ar    1  UNL1        0.0581
     11 C         143.1646  134.4556  156.6339 C.ar    1  UNL1        0.0343
     12 C         142.5711  133.1151  156.3164 C.ar    1  UNL1        0.1425
     13 F         142.7681  131.9653  157.2593 F       1  UNL1       -0.2041
     14 C         141.7805  132.9244  155.0560 C.ar    1  UNL1        0.0592
     15 C         141.5835  134.0742  154.1130 C.ar    1  UNL1        0.1425
     16 F         140.7929  133.8835  152.8526 F       1  UNL1       -0.2041
     17 C         142.1769  135.4147  154.4305 C.ar    1  UNL1        0.0343
     18 C         138.9442  142.8431  160.9993 C.ar    1  UNL1        0.1386
     19 C         138.5578  142.6061  159.5694 C.ar    1  UNL1        0.0382
     20 C         139.3272  141.6232  158.7377 C.ar    1  UNL1        0.0180
     21 C         140.4831  140.8774  159.3357 C.ar    1  UNL1        0.0541
     22 C         140.8695  141.1144  160.7656 C.ar    1  UNL1        0.0180
     23 C         140.1001  142.0973  161.5973 C.ar    1  UNL1        0.0382
     24 O         138.1747  143.8260  161.8311 O.3     1  UNL1       -0.4754
     25 C         137.7123  143.4449  163.2062 C.3     1  UNL1        0.2068
     26 C         138.2216  144.1925  164.4028 C.3     1  UNL1        0.0646
     27 C         139.4317  143.6968  165.1376 C.3     1  UNL1        0.0759
     28 C         142.1472  142.0135  165.8027 C.3     1  UNL1        0.0173
     29 C         142.0519  143.2178  164.9136 C.3     1  UNL1        0.0576
     30 C         143.1880  143.8599  164.1741 C.3     1  UNL1        0.0174
     31 C         142.6421  145.0305  163.4113 C.3     1  UNL1        0.0187
     32 C         141.1685  145.1118  163.6794 C.3     1  UNL1        0.0721
     33 N         140.8037  143.9916  164.6079 N.3     1  UNL1       -0.2738
@<TRIPOS>BOND
     1    29    28    1
     2    29    30    1
     3    30    31    1
     4    31    32    1
     5    32    33    1
     6    33    27    1
     7    27    26    1
     8    26    25    1
     9    25    24    1
    10    24    18    1
    11    18    19   ar
    12    19    20   ar
    13    20    21   ar
    14    21     1    1
    15     1     2    1
    16     2     3    1
    17     3     4    1
    18     4     5   am
    19     5     6    2
    20     5    10    1
    21    10    11   ar
    22    11    12   ar
    23    12    13    1
    24    12    14   ar
    25    14    15   ar
    26    15    16    1
    27    15    17   ar
    28     4     7    1
    29     7     8    1
    30     8     9    2
    31    21    22   ar
    32    22    23   ar
    33    33    29    1
    34    23    18   ar
    35     8     1   am
    36    17    10   ar
@<TRIPOS>MOLECULE
*****
 33 36 0 0 0
SMALL
GASTEIGER

@<TRIPOS>ATOM
      1 N         139.0899  142.5134  160.4080 N.am    1  UNL1       -0.2555
      2 C         139.7148  143.7600  159.8553 C.3     1  UNL1        0.1197
      3 C         139.5999  144.0716  158.3925 C.3     1  UNL1        0.1160
      4 N         138.8601  143.1364  157.4824 N.am    1  UNL1       -0.2660
      5 C         138.7452  143.4479  156.0196 C.2     1  UNL1        0.2496
      6 O         138.0055  142.5128  155.1095 O.2     1  UNL1       -0.2699
      7 C         138.2353  141.8898  158.0351 C.3     1  UNL1        0.1799
      8 C         138.3502  141.5783  159.4978 C.2     1  UNL1        0.2497
      9 O         137.7253  140.3316  160.0506 O.2     1  UNL1       -0.2727
     10 C         139.3701  144.6945  155.4669 C.ar    1  UNL1        0.0581
     11 C         140.7147  144.6297  154.8052 C.ar    1  UNL1        0.0343
     12 C         141.3396  145.8764  154.2526 C.ar    1  UNL1        0.1425
     13 F         142.6841  145.8115  153.5908 F       1  UNL1       -0.2041
     14 C         140.6198  147.1879  154.3616 C.ar    1  UNL1        0.0592
     15 C         139.2752  147.2527  155.0234 C.ar    1  UNL1        0.1425
     16 F         138.5555  148.5642  155.1324 F       1  UNL1       -0.2041
     17 C         138.6504  146.0061  155.5760 C.ar    1  UNL1        0.0343
     18 C         139.4346  141.5787  164.7963 C.ar    1  UNL1        0.1386
     19 C         140.5651  141.2471  163.8678 C.ar    1  UNL1        0.0382
     20 C         140.4502  141.5587  162.4051 C.ar    1  UNL1        0.0180
     21 C         139.2048  142.2018  161.8708 C.ar    1  UNL1        0.0541
     22 C         138.0744  142.5334  162.7993 C.ar    1  UNL1        0.0180
     23 C         138.1893  142.2219  164.2620 C.ar    1  UNL1        0.0382
     24 O         139.5495  141.2672  166.2591 O.3     1  UNL1       -0.4754
     25 C         139.2556  139.8829  166.7565 C.3     1  UNL1        0.2068
     26 C         138.3011  139.0029  166.0050 C.3     1  UNL1        0.0646
     27 C         138.7779  137.7063  165.4207 C.3     1  UNL1        0.0759
     28 C         138.1000  138.0073  162.2428 C.3     1  UNL1        0.0173
     29 C         139.4660  137.8486  162.8418 C.3     1  UNL1        0.0576
     30 C         140.7603  137.8004  162.0852 C.3     1  UNL1        0.0174
     31 C         141.8719  137.6323  163.0783 C.3     1  UNL1        0.0187
     32 C         141.2645  137.5766  164.4487 C.3     1  UNL1        0.0721
     33 N         139.7776  137.7102  164.3025 N.3     1  UNL1       -0.2738
@<TRIPOS>BOND
     1    29    28    1
     2    29    30    1
     3    30    31    1
     4    31    32    1
     5    32    33    1
     6    33    27    1
     7    27    26    1
     8    26    25    1
     9    25    24    1
    10    24    18    1
    11    18    19   ar
    12    19    20   ar
    13    20    21   ar
    14    21     1    1
    15     1     2    1
    16     2     3    1
    17     3     4    1
    18     4     5   am
    19     5     6    2
    20     5    10    1
    21    10    11   ar
    22    11    12   ar
    23    12    13    1
    24    12    14   ar
    25    14    15   ar
    26    15    16    1
    27    15    17   ar
    28     4     7    1
    29     7     8    1
    30     8     9    2
    31    21    22   ar
    32    22    23   ar
    33    33    29    1
    34    23    18   ar
    35     8     1   am
    36    17    10   ar
@<TRIPOS>MOLECULE
*****
 33 36 0 0 0
SMALL
GASTEIGER

@<TRIPOS>ATOM
      1 N         142.5633  138.4895  159.4578 N.am    1  UNL1       -0.2555
      2 C         142.0783  138.0695  160.8136 C.3     1  UNL1        0.1197
      3 C         142.6348  138.7218  162.0445 C.3     1  UNL1        0.1160
      4 N         143.6763  139.7940  161.9194 N.am    1  UNL1       -0.2660
      5 C         144.2327  140.4463  163.1502 C.2     1  UNL1        0.2496
      6 O         145.2742  141.5185  163.0251 O.2     1  UNL1       -0.2699
      7 C         144.1612  140.2140  160.5635 C.3     1  UNL1        0.1799
      8 C         143.6047  139.5617  159.3327 C.2     1  UNL1        0.2497
      9 O         144.0897  139.9817  157.9768 O.2     1  UNL1       -0.2727
     10 C         143.7478  140.0263  164.5060 C.ar    1  UNL1        0.0581
     11 C         142.7294  140.8572  165.2289 C.ar    1  UNL1        0.0343
     12 C         142.2444  140.4372  166.5848 C.ar    1  UNL1        0.1425
     13 F         141.2261  141.2681  167.3076 F       1  UNL1       -0.2041
     14 C         142.7778  139.1863  167.2178 C.ar    1  UNL1        0.0592
     15 C         143.7962  138.3554  166.4949 C.ar    1  UNL1        0.1425
     16 F         144.3295  137.1045  167.1279 F       1  UNL1       -0.2041
     17 C         144.2811  138.7754  165.1391 C.ar    1  UNL1        0.0343
     18 C         140.8940  136.5326  155.7653 C.ar    1  UNL1        0.1386
     19 C         142.2948  136.2286  156.2072 C.ar    1  UNL1        0.0382
     20 C         142.8512  136.8809  157.4380 C.ar    1  UNL1        0.0180
     21 C         142.0068  137.8372  158.2269 C.ar    1  UNL1        0.0541
     22 C         140.6060  138.1412  157.7851 C.ar    1  UNL1        0.0180
     23 C         140.0496  137.4890  156.5543 C.ar    1  UNL1        0.0382
     24 O         140.3375  135.8804  154.5345 O.3     1  UNL1       -0.4754
     25 C         141.2641  135.3856  153.4638 C.3     1  UNL1        0.2068
     26 C         141.5837  133.9232  153.3654 C.3     1  UNL1        0.0646
     27 C         141.3780  133.0291  154.5521 C.3     1  UNL1        0.0759
     28 C         143.5514  130.9299  153.3196 C.3     1  UNL1        0.0173
     29 C         143.5608  131.4944  154.7093 C.3     1  UNL1        0.0576
     30 C         144.5709  131.1930  155.7764 C.3     1  UNL1        0.0174
     31 C         144.1962  131.9717  157.0026 C.3     1  UNL1        0.0187
     32 C         142.9545  132.7543  156.6931 C.3     1  UNL1        0.0721
     33 N         142.5619  132.4593  155.2758 N.3     1  UNL1       -0.2738
@<TRIPOS>BOND
     1    29    28    1
     2    29    30    1
     3    30    31    1
     4    31    32    1
     5    32    33    1
     6    33    27    1
     7    27    26    1
     8    26    25    1
     9    25    24    1
    10    24    18    1
    11    18    19   ar
    12    19    20   ar
    13    20    21   ar
    14    21     1    1
    15     1     2    1
    16     2     3    1
    17     3     4    1
    18     4     5   am
    19     5     6    2
    20     5    10    1
    21    10    11   ar
    22    11    12   ar
    23    12    13    1
    24    12    14   ar
    25    14    15   ar
    26    15    16    1
    27    15    17   ar
    28     4     7    1
    29     7     8    1
    30     8     9    2
    31    21    22   ar
    32    22    23   ar
    33    33    29    1
    34    23    18   ar
    35     8     1   am
    36    17    10   ar
