@<TRIPOS>MOLECULE
*****
 43 49 0 0 0
SMALL
GASTEIGER

@<TRIPOS>ATOM
      1 C         139.7023  139.4504  164.2982 C.3     1  UNL1        0.1204
      2 C         139.1630  139.3428  165.6937 C.ar    1  UNL1        0.0909
      3 N         137.9245  138.5395  165.9593 N.ar    1  UNL1       -0.2453
      4 C         137.3852  138.4319  167.3548 C.ar    1  UNL1        0.0986
      5 C         138.0845  139.1277  168.4848 C.ar    1  UNL1        0.0221
      6 C         139.3231  139.9310  168.2193 C.ar    1  UNL1        0.0199
      7 C         140.2205  140.7210  169.1252 C.ar    1  UNL1        0.0173
      8 C         140.1829  140.9747  170.6031 C.ar    1  UNL1        0.0015
      9 C         141.2392  141.8242  171.2453 C.ar    1  UNL1        0.0001
     10 C         142.3331  142.4200  170.4096 C.ar    1  UNL1        0.0015
     11 C         142.3707  142.1663  168.9317 C.ar    1  UNL1        0.0172
     12 C         141.3144  141.3168  168.2896 C.ar    1  UNL1        0.0599
     13 N         141.0930  140.8950  166.8672 N.ar    1  UNL1       -0.3248
     14 C         139.8623  140.0386  166.8237 C.ar    1  UNL1        0.0750
     15 C         141.9517  141.2649  165.6941 C.3     1  UNL1        0.1233
     16 C         141.7534  142.5824  165.0053 C.3     1  UNL1        0.0970
     17 N         142.7582  143.0620  164.0001 N.3     1  UNL1       -0.2668
     18 C         143.5205  142.0718  163.1704 C.3     1  UNL1        0.1047
     19 C         144.5253  142.5514  162.1653 C.3     1  UNL1        0.1595
     20 O         144.7679  144.0212  161.9898 O.3     1  UNL1       -0.3508
     21 C         144.0057  145.0114  162.8196 C.3     1  UNL1        0.1595
     22 C         143.0008  144.5318  163.8247 C.3     1  UNL1        0.1047
     23 N         138.8951  140.1307  163.2326 N.3     1  UNL1       -0.2639
     24 C         141.1164  144.1489  160.3741 C.ar    1  UNL1        0.0203
     25 C         141.2681  142.6565  160.3621 C.ar    1  UNL1        0.0985
     26 N         140.4772  141.8146  161.3189 N.ar    1  UNL1       -0.2471
     27 C         139.5344  142.4649  162.2877 C.ar    1  UNL1        0.0695
     28 C         139.3827  143.9572  162.2996 C.ar    1  UNL1       -0.0073
     29 C         140.1737  144.7992  161.3428 C.ar    1  UNL1       -0.0015
     30 C         138.4401  144.6075  163.2683 C.3     1  UNL1        0.0277
     31 C         137.6491  143.7656  164.2251 C.3     1  UNL1        0.0065
     32 C         137.8008  142.2733  164.2132 C.3     1  UNL1        0.0224
     33 C         138.7434  141.6230  163.2445 C.3     1  UNL1        0.0981
     34 C         138.2396  139.3188  162.1550 C.3     1  UNL1        0.0741
     35 C         138.9733  138.1686  161.5313 C.3     1  UNL1        0.0347
     36 C         139.9111  138.4098  160.3858 C.3     1  UNL1        0.0736
     37 N         141.3834  138.5471  160.6380 N.3     1  UNL1       -0.2703
     38 C         142.2612  139.2057  159.6156 C.3     1  UNL1        0.0894
     39 C         143.7335  139.3430  159.8678 C.3     1  UNL1        0.0862
     40 N         144.3279  138.8216  161.1424 N.3     1  UNL1       -0.2951
     41 C         143.4501  138.1630  162.1649 C.3     1  UNL1        0.0862
     42 C         141.9778  138.0257  161.9127 C.3     1  UNL1        0.0894
     43 H         144.7749  139.6135  161.6044 H       1  UNL1        0.1233
@<TRIPOS>BOND
     1    24    25   ar
     2    25    26   ar
     3    26    27   ar
     4    27    28   ar
     5    28    29   ar
     6    28    30    1
     7    30    31    1
     8    31    32    1
     9    32    33    1
    10    33    23    1
    11    23    34    1
    12    34    35    1
    13    35    36    1
    14    36    37    1
    15    37    38    1
    16    38    39    1
    17    39    40    1
    18    40    41    1
    19    41    42    1
    20    23     1    1
    21     1     2    1
    22     2     3   ar
    23     3     4   ar
    24     4     5   ar
    25     5     6   ar
    26     6     7   ar
    27     7     8   ar
    28     8     9   ar
    29     9    10   ar
    30    10    11   ar
    31    11    12   ar
    32    12    13   ar
    33    13    15    1
    34    15    16    1
    35    16    17    1
    36    17    18    1
    37    18    19    1
    38    19    20    1
    39    20    21    1
    40    21    22    1
    41    13    14   ar
    42    29    24   ar
    43    42    37    1
    44    14     2   ar
    45    33    27    1
    46    14     6   ar
    47    12     7   ar
    48    22    17    1
    49    40    43    1
@<TRIPOS>MOLECULE
*****
 43 49 0 0 0
SMALL
GASTEIGER

@<TRIPOS>ATOM
      1 C         138.0915  142.4135  163.3978 C.3     1  UNL1        0.1204
      2 C         138.0963  141.8786  161.9965 C.ar    1  UNL1        0.0909
      3 N         137.4452  140.5614  161.6943 N.ar    1  UNL1       -0.2453
      4 C         137.4501  140.0265  160.2930 C.ar    1  UNL1        0.0986
      5 C         138.1059  140.8086  159.1938 C.ar    1  UNL1        0.0221
      6 C         138.7569  142.1257  159.4960 C.ar    1  UNL1        0.0199
      7 C         139.4760  143.1131  158.6253 C.ar    1  UNL1        0.0173
      8 C         139.7873  143.1173  157.1580 C.ar    1  UNL1        0.0015
      9 C         140.5381  144.2667  156.5539 C.ar    1  UNL1        0.0001
     10 C         140.9778  145.4120  157.4172 C.ar    1  UNL1        0.0015
     11 C         140.6665  145.4078  158.8845 C.ar    1  UNL1        0.0172
     12 C         139.9156  144.2583  159.4886 C.ar    1  UNL1        0.0599
     13 N         139.4682  143.9787  160.8927 N.ar    1  UNL1       -0.3248
     14 C         138.7521  142.6607  160.8973 C.ar    1  UNL1        0.0750
     15 C         139.6968  144.8621  162.0833 C.3     1  UNL1        0.1233
     16 C         141.0242  145.5337  162.2751 C.3     1  UNL1        0.0970
     17 N         142.2249  144.7242  162.6663 N.3     1  UNL1       -0.2668
     18 C         142.8469  144.9106  164.0185 C.3     1  UNL1        0.1047
     19 C         144.0475  144.1011  164.4098 C.3     1  UNL1        0.1595
     20 O         144.6262  143.1051  163.4489 O.3     1  UNL1       -0.3508
     21 C         144.0042  142.9188  162.0967 C.3     1  UNL1        0.1595
     22 C         142.8035  143.7283  161.7055 C.3     1  UNL1        0.1047
     23 N         139.0705  141.8871  164.4049 N.3     1  UNL1       -0.2639
     24 C         142.0819  137.7697  162.6082 C.ar    1  UNL1        0.0203
     25 C         142.0376  139.2374  162.3013 C.ar    1  UNL1        0.0985
     26 N         141.0486  140.1207  163.0025 N.ar    1  UNL1       -0.2471
     27 C         140.1039  139.5363  164.0106 C.ar    1  UNL1        0.0695
     28 C         140.1482  138.0687  164.3174 C.ar    1  UNL1       -0.0073
     29 C         141.1373  137.1854  163.6162 C.ar    1  UNL1       -0.0015
     30 C         139.2036  137.4843  165.3254 C.3     1  UNL1        0.0277
     31 C         138.2146  138.3676  166.0266 C.3     1  UNL1        0.0065
     32 C         138.1702  139.8352  165.7198 C.3     1  UNL1        0.0224
     33 C         139.1148  140.4196  164.7118 C.3     1  UNL1        0.0981
     34 C         140.0052  142.8284  165.1052 C.3     1  UNL1        0.0741
     35 C         140.1035  142.8125  166.6019 C.3     1  UNL1        0.0347
     36 C         141.2041  142.0457  167.2732 C.3     1  UNL1        0.0736
     37 N         141.0581  141.6223  168.7048 N.3     1  UNL1       -0.2703
     38 C         141.8805  142.2843  169.7702 C.3     1  UNL1        0.0894
     39 C         141.7346  141.8609  171.2018 C.3     1  UNL1        0.0862
     40 N         140.7662  140.7754  171.5679 N.3     1  UNL1       -0.2951
     41 C         139.9438  140.1134  170.5024 C.3     1  UNL1        0.0862
     42 C         140.0898  140.5368  169.0708 C.3     1  UNL1        0.0894
     43 H         140.1110  141.1789  172.2374 H       1  UNL1        0.1233
@<TRIPOS>BOND
     1    24    25   ar
     2    25    26   ar
     3    26    27   ar
     4    27    28   ar
     5    28    29   ar
     6    28    30    1
     7    30    31    1
     8    31    32    1
     9    32    33    1
    10    33    23    1
    11    23    34    1
    12    34    35    1
    13    35    36    1
    14    36    37    1
    15    37    38    1
    16    38    39    1
    17    39    40    1
    18    40    41    1
    19    41    42    1
    20    23     1    1
    21     1     2    1
    22     2     3   ar
    23     3     4   ar
    24     4     5   ar
    25     5     6   ar
    26     6     7   ar
    27     7     8   ar
    28     8     9   ar
    29     9    10   ar
    30    10    11   ar
    31    11    12   ar
    32    12    13   ar
    33    13    15    1
    34    15    16    1
    35    16    17    1
    36    17    18    1
    37    18    19    1
    38    19    20    1
    39    20    21    1
    40    21    22    1
    41    13    14   ar
    42    29    24   ar
    43    42    37    1
    44    14     2   ar
    45    33    27    1
    46    14     6   ar
    47    12     7   ar
    48    22    17    1
    49    40    43    1
@<TRIPOS>MOLECULE
*****
 43 49 0 0 0
SMALL
GASTEIGER

@<TRIPOS>ATOM
      1 C         140.2195  143.0305  160.4756 C.3     1  UNL1        0.1204
      2 C         139.4235  143.0199  161.7470 C.ar    1  UNL1        0.0909
      3 N         138.7222  144.2649  162.2030 N.ar    1  UNL1       -0.2453
      4 C         137.9262  144.2543  163.4743 C.ar    1  UNL1        0.0986
      5 C         137.8316  142.9987  164.2896 C.ar    1  UNL1        0.0221
      6 C         138.5329  141.7537  163.8335 C.ar    1  UNL1        0.0199
      7 C         138.6201  140.3774  164.4236 C.ar    1  UNL1        0.0173
      8 C         138.0354  139.7806  165.6694 C.ar    1  UNL1        0.0015
      9 C         138.3007  138.3438  166.0085 C.ar    1  UNL1        0.0001
     10 C         139.1506  137.5037  165.1019 C.ar    1  UNL1        0.0015
     11 C         139.7352  138.1005  163.8561 C.ar    1  UNL1        0.0172
     12 C         139.4700  139.5374  163.5170 C.ar    1  UNL1        0.0599
     13 N         139.9081  140.3945  162.3666 N.ar    1  UNL1       -0.3248
     14 C         139.3289  141.7643  162.5622 C.ar    1  UNL1        0.0750
     15 C         140.7734  139.9584  161.2216 C.3     1  UNL1        0.1233
     16 C         140.3001  138.8808  160.2918 C.3     1  UNL1        0.0970
     17 N         139.5694  139.2437  159.0331 N.3     1  UNL1       -0.2668
     18 C         138.4445  140.2350  159.0782 C.3     1  UNL1        0.1047
     19 C         137.7138  140.5980  157.8195 C.3     1  UNL1        0.1595
     20 O         138.1079  139.9696  156.5157 O.3     1  UNL1       -0.3508
     21 C         139.2327  138.9783  156.4706 C.3     1  UNL1        0.1595
     22 C         139.9635  138.6154  157.7293 C.3     1  UNL1        0.1047
     23 N         141.6450  143.4969  160.4872 N.3     1  UNL1       -0.2639
     24 C         145.3321  140.9109  163.4820 C.ar    1  UNL1        0.0203
     25 C         144.6523  140.6085  162.1794 C.ar    1  UNL1        0.0985
     26 N         143.6499  141.5713  161.6153 N.ar    1  UNL1       -0.2471
     27 C         143.3272  142.8365  162.3538 C.ar    1  UNL1        0.0695
     28 C         144.0068  143.1389  163.6563 C.ar    1  UNL1       -0.0073
     29 C         145.0093  142.1761  164.2204 C.ar    1  UNL1       -0.0015
     30 C         143.6842  144.4039  164.3947 C.3     1  UNL1        0.0277
     31 C         142.6817  145.3667  163.8306 C.3     1  UNL1        0.0065
     32 C         142.0020  145.0643  162.5281 C.3     1  UNL1        0.0224
     33 C         142.3247  143.7993  161.7897 C.3     1  UNL1        0.0981
     34 C         142.3909  143.6610  159.1961 C.3     1  UNL1        0.0741
     35 C         141.8619  144.5811  158.1360 C.3     1  UNL1        0.0347
     36 C         141.1147  144.0215  156.9619 C.3     1  UNL1        0.0736
     37 N         140.0451  144.8357  156.2963 N.3     1  UNL1       -0.2703
     38 C         140.1379  146.3327  156.2886 C.3     1  UNL1        0.0894
     39 C         139.0683  147.1470  155.6229 C.3     1  UNL1        0.0862
     40 N         137.9060  146.4641  154.9651 N.3     1  UNL1       -0.2951
     41 C         137.8133  144.9671  154.9728 C.3     1  UNL1        0.0862
     42 C         138.8829  144.1528  155.6384 C.3     1  UNL1        0.0894
     43 H         137.9093  146.7539  153.9871 H       1  UNL1        0.1233
@<TRIPOS>BOND
     1    24    25   ar
     2    25    26   ar
     3    26    27   ar
     4    27    28   ar
     5    28    29   ar
     6    28    30    1
     7    30    31    1
     8    31    32    1
     9    32    33    1
    10    33    23    1
    11    23    34    1
    12    34    35    1
    13    35    36    1
    14    36    37    1
    15    37    38    1
    16    38    39    1
    17    39    40    1
    18    40    41    1
    19    41    42    1
    20    23     1    1
    21     1     2    1
    22     2     3   ar
    23     3     4   ar
    24     4     5   ar
    25     5     6   ar
    26     6     7   ar
    27     7     8   ar
    28     8     9   ar
    29     9    10   ar
    30    10    11   ar
    31    11    12   ar
    32    12    13   ar
    33    13    15    1
    34    15    16    1
    35    16    17    1
    36    17    18    1
    37    18    19    1
    38    19    20    1
    39    20    21    1
    40    21    22    1
    41    13    14   ar
    42    29    24   ar
    43    42    37    1
    44    14     2   ar
    45    33    27    1
    46    14     6   ar
    47    12     7   ar
    48    22    17    1
    49    40    43    1
@<TRIPOS>MOLECULE
*****
 43 49 0 0 0
SMALL
GASTEIGER

@<TRIPOS>ATOM
      1 C         143.6776  141.0601  163.6318 C.3     1  UNL1        0.1204
      2 C         142.8572  139.8192  163.4393 C.ar    1  UNL1        0.0909
      3 N         143.2077  138.8499  162.3495 N.ar    1  UNL1       -0.2453
      4 C         142.3873  137.6091  162.1570 C.ar    1  UNL1        0.0986
      5 C         141.2164  137.3374  163.0543 C.ar    1  UNL1        0.0221
      6 C         140.8658  138.3066  164.1441 C.ar    1  UNL1        0.0199
      7 C         139.7769  138.3062  165.1757 C.ar    1  UNL1        0.0173
      8 C         138.6701  137.3364  165.4664 C.ar    1  UNL1        0.0015
      9 C         137.7108  137.6072  166.5872 C.ar    1  UNL1        0.0001
     10 C         137.8582  138.8479  167.4173 C.ar    1  UNL1        0.0015
     11 C         138.9650  139.8177  167.1266 C.ar    1  UNL1        0.0172
     12 C         139.9243  139.5469  166.0058 C.ar    1  UNL1        0.0599
     13 N         141.1043  140.3140  165.4872 N.ar    1  UNL1       -0.3248
     14 C         141.6863  139.5475  164.3366 C.ar    1  UNL1        0.0750
     15 C         141.6131  141.6187  166.0248 C.3     1  UNL1        0.1233
     16 C         142.3622  141.6536  167.3238 C.3     1  UNL1        0.0970
     17 N         141.6114  141.6973  168.6217 N.3     1  UNL1       -0.2668
     18 C         141.6480  140.5191  169.5493 C.3     1  UNL1        0.1047
     19 C         140.8972  140.5629  170.8472 C.3     1  UNL1        0.1595
     20 O         140.1098  141.7847  171.2174 O.3     1  UNL1       -0.3508
     21 C         140.0733  142.9629  170.2897 C.3     1  UNL1        0.1595
     22 C         140.8241  142.9192  168.9918 C.3     1  UNL1        0.1047
     23 N         143.5493  142.2012  162.6668 N.3     1  UNL1       -0.2639
     24 C         138.2860  142.3165  161.4279 C.ar    1  UNL1        0.0203
     25 C         139.3749  141.3007  161.2476 C.ar    1  UNL1        0.0985
     26 N         140.7664  141.6008  161.7207 N.ar    1  UNL1       -0.2471
     27 C         141.0689  142.9168  162.3740 C.ar    1  UNL1        0.0695
     28 C         139.9800  143.9326  162.5543 C.ar    1  UNL1       -0.0073
     29 C         138.5885  143.6324  162.0812 C.ar    1  UNL1       -0.0015
     30 C         140.2825  145.2484  163.2076 C.3     1  UNL1        0.0277
     31 C         141.6739  145.5486  163.6807 C.3     1  UNL1        0.0065
     32 C         142.7628  144.5328  163.5004 C.3     1  UNL1        0.0224
     33 C         142.4604  143.2170  162.8471 C.3     1  UNL1        0.0981
     34 C         144.5099  142.3266  161.5215 C.3     1  UNL1        0.0741
     35 C         144.0415  142.0752  160.1189 C.3     1  UNL1        0.0347
     36 C         143.2990  143.1442  159.3731 C.3     1  UNL1        0.0736
     37 N         141.9535  142.8481  158.7797 N.3     1  UNL1       -0.2703
     38 C         140.8864  143.9022  158.7778 C.3     1  UNL1        0.0894
     39 C         139.5409  143.6062  158.1843 C.3     1  UNL1        0.0862
     40 N         139.2627  142.2561  157.5929 N.3     1  UNL1       -0.2951
     41 C         140.3298  141.2020  157.5949 C.3     1  UNL1        0.0862
     42 C         141.6753  141.4980  158.1883 C.3     1  UNL1        0.0894
     43 H         139.0021  142.4094  156.6188 H       1  UNL1        0.1233
@<TRIPOS>BOND
     1    24    25   ar
     2    25    26   ar
     3    26    27   ar
     4    27    28   ar
     5    28    29   ar
     6    28    30    1
     7    30    31    1
     8    31    32    1
     9    32    33    1
    10    33    23    1
    11    23    34    1
    12    34    35    1
    13    35    36    1
    14    36    37    1
    15    37    38    1
    16    38    39    1
    17    39    40    1
    18    40    41    1
    19    41    42    1
    20    23     1    1
    21     1     2    1
    22     2     3   ar
    23     3     4   ar
    24     4     5   ar
    25     5     6   ar
    26     6     7   ar
    27     7     8   ar
    28     8     9   ar
    29     9    10   ar
    30    10    11   ar
    31    11    12   ar
    32    12    13   ar
    33    13    15    1
    34    15    16    1
    35    16    17    1
    36    17    18    1
    37    18    19    1
    38    19    20    1
    39    20    21    1
    40    21    22    1
    41    13    14   ar
    42    29    24   ar
    43    42    37    1
    44    14     2   ar
    45    33    27    1
    46    14     6   ar
    47    12     7   ar
    48    22    17    1
    49    40    43    1
@<TRIPOS>MOLECULE
*****
 43 49 0 0 0
SMALL
GASTEIGER

@<TRIPOS>ATOM
      1 C         140.0013  142.5265  161.2807 C.3     1  UNL1        0.1204
      2 C         139.9604  141.0322  161.4050 C.ar    1  UNL1        0.0909
      3 N         140.4056  140.1720  160.2596 N.ar    1  UNL1       -0.2453
      4 C         140.3647  138.6777  160.3839 C.ar    1  UNL1        0.0986
      5 C         139.8786  138.0436  161.6534 C.ar    1  UNL1        0.0221
      6 C         139.4334  138.9039  162.7987 C.ar    1  UNL1        0.0199
      7 C         138.9094  138.5663  164.1631 C.ar    1  UNL1        0.0173
      8 C         138.6534  137.2543  164.8436 C.ar    1  UNL1        0.0015
      9 C         138.1144  137.2281  166.2432 C.ar    1  UNL1        0.0001
     10 C         137.8314  138.5137  166.9622 C.ar    1  UNL1        0.0015
     11 C         138.0875  139.8257  166.2817 C.ar    1  UNL1        0.0172
     12 C         138.6265  139.8520  164.8821 C.ar    1  UNL1        0.0599
     13 N         138.9756  140.9841  163.9621 N.ar    1  UNL1       -0.3248
     14 C         139.4743  140.3982  162.6745 C.ar    1  UNL1        0.0750
     15 C         138.8483  142.4456  164.2748 C.3     1  UNL1        0.1233
     16 C         139.9730  143.1677  164.9556 C.3     1  UNL1        0.0970
     17 N         140.7180  142.5075  166.0777 N.3     1  UNL1       -0.2668
     18 C         141.8353  141.5530  165.7769 C.3     1  UNL1        0.1047
     19 C         142.5803  140.8928  166.8991 C.3     1  UNL1        0.1595
     20 O         142.2079  141.1871  168.3220 O.3     1  UNL1       -0.3508
     21 C         141.0906  142.1415  168.6228 C.3     1  UNL1        0.1595
     22 C         140.3456  142.8018  167.5006 C.3     1  UNL1        0.1047
     23 N         141.2985  143.2192  160.9854 N.3     1  UNL1       -0.2639
     24 C         145.4023  140.8275  163.5716 C.ar    1  UNL1        0.0203
     25 C         144.4996  140.4144  162.4470 C.ar    1  UNL1        0.0985
     26 N         143.4325  141.3493  161.9598 N.ar    1  UNL1       -0.2471
     27 C         143.2682  142.6973  162.5971 C.ar    1  UNL1        0.0695
     28 C         144.1709  143.1103  163.7216 C.ar    1  UNL1       -0.0073
     29 C         145.2380  142.1754  164.2089 C.ar    1  UNL1       -0.0015
     30 C         144.0066  144.4581  164.3590 C.3     1  UNL1        0.0277
     31 C         142.9396  145.3930  163.8717 C.3     1  UNL1        0.0065
     32 C         142.0369  144.9800  162.7472 C.3     1  UNL1        0.0224
     33 C         142.2012  143.6322  162.1099 C.3     1  UNL1        0.0981
     34 C         141.6930  143.4991  159.5654 C.3     1  UNL1        0.0741
     35 C         140.8619  144.4219  158.7241 C.3     1  UNL1        0.0347
     36 C         140.1955  143.9085  157.4822 C.3     1  UNL1        0.0736
     37 N         139.6357  142.5172  157.4517 N.3     1  UNL1       -0.2703
     38 C         140.4112  141.4110  156.8000 C.3     1  UNL1        0.0894
     39 C         139.8514  140.0197  156.7696 C.3     1  UNL1        0.0862
     40 N         138.5163  139.7346  157.3908 N.3     1  UNL1       -0.2951
     41 C         137.7408  140.8409  158.0426 C.3     1  UNL1        0.0862
     42 C         138.3005  142.2322  158.0730 C.3     1  UNL1        0.0894
     43 H         138.6697  139.0224  158.1047 H       1  UNL1        0.1233
@<TRIPOS>BOND
     1    24    25   ar
     2    25    26   ar
     3    26    27   ar
     4    27    28   ar
     5    28    29   ar
     6    28    30    1
     7    30    31    1
     8    31    32    1
     9    32    33    1
    10    33    23    1
    11    23    34    1
    12    34    35    1
    13    35    36    1
    14    36    37    1
    15    37    38    1
    16    38    39    1
    17    39    40    1
    18    40    41    1
    19    41    42    1
    20    23     1    1
    21     1     2    1
    22     2     3   ar
    23     3     4   ar
    24     4     5   ar
    25     5     6   ar
    26     6     7   ar
    27     7     8   ar
    28     8     9   ar
    29     9    10   ar
    30    10    11   ar
    31    11    12   ar
    32    12    13   ar
    33    13    15    1
    34    15    16    1
    35    16    17    1
    36    17    18    1
    37    18    19    1
    38    19    20    1
    39    20    21    1
    40    21    22    1
    41    13    14   ar
    42    29    24   ar
    43    42    37    1
    44    14     2   ar
    45    33    27    1
    46    14     6   ar
    47    12     7   ar
    48    22    17    1
    49    40    43    1
@<TRIPOS>MOLECULE
*****
 43 49 0 0 0
SMALL
GASTEIGER

@<TRIPOS>ATOM
      1 C         144.2969  140.7773  161.0036 C.3     1  UNL1        0.1204
      2 C         144.1556  141.8130  162.0794 C.ar    1  UNL1        0.0909
      3 N         144.3727  143.2621  161.7586 N.ar    1  UNL1       -0.2453
      4 C         144.2314  144.2977  162.8344 C.ar    1  UNL1        0.0986
      5 C         143.8732  143.8843  164.2311 C.ar    1  UNL1        0.0221
      6 C         143.6562  142.4352  164.5520 C.ar    1  UNL1        0.0199
      7 C         143.2966  141.7326  165.8275 C.ar    1  UNL1        0.0173
      8 C         143.0325  142.2413  167.2137 C.ar    1  UNL1        0.0015
      9 C         142.6875  141.2802  168.3123 C.ar    1  UNL1        0.0001
     10 C         142.6065  139.8102  168.0248 C.ar    1  UNL1        0.0015
     11 C         142.8706  139.3014  166.6387 C.ar    1  UNL1        0.0172
     12 C         143.2157  140.2626  165.5401 C.ar    1  UNL1        0.0599
     13 N         143.5251  140.0568  164.0868 N.ar    1  UNL1       -0.3248
     14 C         143.7974  141.3995  163.4761 C.ar    1  UNL1        0.0750
     15 C         143.5568  138.7395  163.3701 C.3     1  UNL1        0.1233
     16 C         142.3006  138.1820  162.7694 C.3     1  UNL1        0.0970
     17 N         140.9750  138.4537  163.4167 N.3     1  UNL1       -0.2668
     18 C         140.1865  139.6697  163.0297 C.3     1  UNL1        0.1047
     19 C         138.8609  139.9413  163.6770 C.3     1  UNL1        0.1595
     20 O         138.3237  138.9970  164.7112 O.3     1  UNL1       -0.3508
     21 C         139.1121  137.7810  165.0981 C.3     1  UNL1        0.1595
     22 C         140.4378  137.5093  164.4509 C.3     1  UNL1        0.1047
     23 N         143.4274  140.8404  159.7831 N.3     1  UNL1       -0.2639
     24 C         143.6933  137.5830  155.4739 C.ar    1  UNL1        0.0203
     25 C         143.0704  137.4610  156.8330 C.ar    1  UNL1        0.0985
     26 N         143.1894  138.5875  157.8164 N.ar    1  UNL1       -0.2471
     27 C         143.9313  139.8359  157.4406 C.ar    1  UNL1        0.0695
     28 C         144.5541  139.9578  156.0815 C.ar    1  UNL1       -0.0073
     29 C         144.4352  138.8314  155.0982 C.ar    1  UNL1       -0.0015
     30 C         145.2960  141.2061  155.7057 C.3     1  UNL1        0.0277
     31 C         145.4150  142.3326  156.6891 C.3     1  UNL1        0.0065
     32 C         144.7921  142.2106  158.0482 C.3     1  UNL1        0.0224
     33 C         144.0503  140.9623  158.4240 C.3     1  UNL1        0.0981
     34 C         141.9349  140.7816  159.9216 C.3     1  UNL1        0.0741
     35 C         141.0874  141.8970  159.3852 C.3     1  UNL1        0.0347
     36 C         141.4626  143.3230  159.6602 C.3     1  UNL1        0.0736
     37 N         140.8734  144.0397  160.8388 N.3     1  UNL1       -0.2703
     38 C         140.4417  145.4702  160.7075 C.3     1  UNL1        0.0894
     39 C         139.8524  146.1869  161.8862 C.3     1  UNL1        0.0862
     40 N         139.6950  145.4731  163.1960 N.3     1  UNL1       -0.2951
     41 C         140.1268  144.0427  163.3273 C.3     1  UNL1        0.0862
     42 C         140.7160  143.3260  162.1487 C.3     1  UNL1        0.0894
     43 H         138.7029  145.5040  163.4308 H       1  UNL1        0.1233
@<TRIPOS>BOND
     1    24    25   ar
     2    25    26   ar
     3    26    27   ar
     4    27    28   ar
     5    28    29   ar
     6    28    30    1
     7    30    31    1
     8    31    32    1
     9    32    33    1
    10    33    23    1
    11    23    34    1
    12    34    35    1
    13    35    36    1
    14    36    37    1
    15    37    38    1
    16    38    39    1
    17    39    40    1
    18    40    41    1
    19    41    42    1
    20    23     1    1
    21     1     2    1
    22     2     3   ar
    23     3     4   ar
    24     4     5   ar
    25     5     6   ar
    26     6     7   ar
    27     7     8   ar
    28     8     9   ar
    29     9    10   ar
    30    10    11   ar
    31    11    12   ar
    32    12    13   ar
    33    13    15    1
    34    15    16    1
    35    16    17    1
    36    17    18    1
    37    18    19    1
    38    19    20    1
    39    20    21    1
    40    21    22    1
    41    13    14   ar
    42    29    24   ar
    43    42    37    1
    44    14     2   ar
    45    33    27    1
    46    14     6   ar
    47    12     7   ar
    48    22    17    1
    49    40    43    1
@<TRIPOS>MOLECULE
*****
 43 49 0 0 0
SMALL
GASTEIGER

@<TRIPOS>ATOM
      1 C         139.1638  143.2618  160.2827 C.3     1  UNL1        0.1204
      2 C         138.7217  143.1876  161.7142 C.ar    1  UNL1        0.0909
      3 N         138.2411  144.4232  162.4157 N.ar    1  UNL1       -0.2453
      4 C         137.7990  144.3490  163.8471 C.ar    1  UNL1        0.0986
      5 C         137.8374  143.0391  164.5770 C.ar    1  UNL1        0.0221
      6 C         138.3180  141.8034  163.8755 C.ar    1  UNL1        0.0199
      7 C         138.4663  140.3828  164.3334 C.ar    1  UNL1        0.0173
      8 C         138.1843  139.7172  165.6477 C.ar    1  UNL1        0.0015
      9 C         138.4361  138.2479  165.8136 C.ar    1  UNL1        0.0001
     10 C         138.9699  137.4441  164.6652 C.ar    1  UNL1        0.0015
     11 C         139.2520  138.1096  163.3509 C.ar    1  UNL1        0.0172
     12 C         139.0002  139.5789  163.1850 C.ar    1  UNL1        0.0599
     13 N         139.1817  140.5029  162.0173 N.ar    1  UNL1       -0.3248
     14 C         138.7601  141.8777  162.4441 C.ar    1  UNL1        0.0750
     15 C         139.6948  140.1193  160.6610 C.3     1  UNL1        0.1233
     16 C         140.7739  139.0855  160.5321 C.3     1  UNL1        0.0970
     17 N         141.0539  138.4555  159.1999 N.3     1  UNL1       -0.2668
     18 C         139.9283  138.1892  158.2449 C.3     1  UNL1        0.1047
     19 C         140.2082  137.5591  156.9127 C.3     1  UNL1        0.1595
     20 O         141.6137  137.1954  156.5355 O.3     1  UNL1       -0.3508
     21 C         142.7393  137.4617  157.4906 C.3     1  UNL1        0.1595
     22 C         142.4594  138.0918  158.8228 C.3     1  UNL1        0.1047
     23 N         140.4360  143.9720  159.9266 N.3     1  UNL1       -0.2639
     24 C         143.7494  144.7304  164.1334 C.ar    1  UNL1        0.0203
     25 C         142.4270  145.3142  163.7325 C.ar    1  UNL1        0.0985
     26 N         141.7633  144.8668  162.4639 N.ar    1  UNL1       -0.2471
     27 C         142.4220  143.8356  161.5962 C.ar    1  UNL1        0.0695
     28 C         143.7443  143.2519  161.9971 C.ar    1  UNL1       -0.0073
     29 C         144.4080  143.6993  163.2657 C.ar    1  UNL1       -0.0015
     30 C         144.4030  142.2208  161.1295 C.3     1  UNL1        0.0277
     31 C         143.7393  141.7734  159.8608 C.3     1  UNL1        0.0065
     32 C         142.4170  142.3571  159.4599 C.3     1  UNL1        0.0224
     33 C         141.7583  143.3882  160.3275 C.3     1  UNL1        0.0981
     34 C         140.3860  145.2660  159.1695 C.3     1  UNL1        0.0741
     35 C         141.2735  145.4726  157.9780 C.3     1  UNL1        0.0347
     36 C         141.0150  144.7145  156.7098 C.3     1  UNL1        0.0736
     37 N         139.6088  144.5215  156.2248 N.3     1  UNL1       -0.2703
     38 C         138.9648  145.5627  155.3582 C.3     1  UNL1        0.0894
     39 C         137.5585  145.3697  154.8731 C.3     1  UNL1        0.0862
     40 N         136.7964  144.1354  155.2547 N.3     1  UNL1       -0.2951
     41 C         137.4403  143.0942  156.1213 C.3     1  UNL1        0.0862
     42 C         138.8466  143.2872  156.6063 C.3     1  UNL1        0.0894
     43 H         136.5316  143.6723  154.3853 H       1  UNL1        0.1233
@<TRIPOS>BOND
     1    24    25   ar
     2    25    26   ar
     3    26    27   ar
     4    27    28   ar
     5    28    29   ar
     6    28    30    1
     7    30    31    1
     8    31    32    1
     9    32    33    1
    10    33    23    1
    11    23    34    1
    12    34    35    1
    13    35    36    1
    14    36    37    1
    15    37    38    1
    16    38    39    1
    17    39    40    1
    18    40    41    1
    19    41    42    1
    20    23     1    1
    21     1     2    1
    22     2     3   ar
    23     3     4   ar
    24     4     5   ar
    25     5     6   ar
    26     6     7   ar
    27     7     8   ar
    28     8     9   ar
    29     9    10   ar
    30    10    11   ar
    31    11    12   ar
    32    12    13   ar
    33    13    15    1
    34    15    16    1
    35    16    17    1
    36    17    18    1
    37    18    19    1
    38    19    20    1
    39    20    21    1
    40    21    22    1
    41    13    14   ar
    42    29    24   ar
    43    42    37    1
    44    14     2   ar
    45    33    27    1
    46    14     6   ar
    47    12     7   ar
    48    22    17    1
    49    40    43    1
@<TRIPOS>MOLECULE
*****
 43 49 0 0 0
SMALL
GASTEIGER

@<TRIPOS>ATOM
      1 C         143.0901  140.1040  162.0683 C.3     1  UNL1        0.1204
      2 C         143.3239  141.2377  163.0222 C.ar    1  UNL1        0.0909
      3 N         143.7172  142.5879  162.5004 N.ar    1  UNL1       -0.2453
      4 C         143.9510  143.7216  163.4543 C.ar    1  UNL1        0.0986
      5 C         143.7914  143.5052  164.9300 C.ar    1  UNL1        0.0221
      6 C         143.3981  142.1551  165.4518 C.ar    1  UNL1        0.0199
      7 C         143.1667  141.6453  166.8434 C.ar    1  UNL1        0.0173
      8 C         143.2504  142.3132  168.1839 C.ar    1  UNL1        0.0015
      9 C         142.9574  141.5322  169.4305 C.ar    1  UNL1        0.0001
     10 C         142.5806  140.0833  169.3367 C.ar    1  UNL1        0.0015
     11 C         142.4969  139.4154  167.9962 C.ar    1  UNL1        0.0172
     12 C         142.7899  140.1964  166.7496 C.ar    1  UNL1        0.0599
     13 N         142.7885  139.8108  165.3000 N.ar    1  UNL1       -0.3248
     14 C         143.1643  141.0213  164.4979 C.ar    1  UNL1        0.0750
     15 C         142.4675  138.4530  164.7492 C.3     1  UNL1        0.1233
     16 C         141.0839  137.8925  164.8947 C.3     1  UNL1        0.0970
     17 N         139.9724  138.4035  164.0267 N.3     1  UNL1       -0.2668
     18 C         139.2142  139.6346  164.4262 C.3     1  UNL1        0.1047
     19 C         138.1028  140.1456  163.5582 C.3     1  UNL1        0.1595
     20 O         137.7495  139.4257  162.2905 O.3     1  UNL1       -0.3508
     21 C         138.5078  138.1947  161.8910 C.3     1  UNL1        0.1595
     22 C         139.6192  137.6836  162.7590 C.3     1  UNL1        0.1047
     23 N         142.1239  140.2665  160.9326 N.3     1  UNL1       -0.2639
     24 C         145.3156  141.9534  156.9054 C.ar    1  UNL1        0.0203
     25 C         144.9771  142.4973  158.2618 C.ar    1  UNL1        0.0985
     26 N         144.0260  141.7537  159.1521 N.ar    1  UNL1       -0.2471
     27 C         143.4134  140.4662  158.6860 C.ar    1  UNL1        0.0695
     28 C         143.7519  139.9224  157.3297 C.ar    1  UNL1       -0.0073
     29 C         144.7030  140.6660  156.4394 C.ar    1  UNL1       -0.0015
     30 C         143.1394  138.6350  156.8636 C.3     1  UNL1        0.0277
     31 C         142.1883  137.8914  157.7539 C.3     1  UNL1        0.0065
     32 C         141.8499  138.4352  159.1102 C.3     1  UNL1        0.0224
     33 C         142.4624  139.7226  159.5763 C.3     1  UNL1        0.0981
     34 C         140.8191  140.9729  161.1533 C.3     1  UNL1        0.0741
     35 C         140.3023  141.9328  160.1229 C.3     1  UNL1        0.0347
     36 C         139.2036  142.8913  160.4750 C.3     1  UNL1        0.0736
     37 N         139.2411  143.6281  161.7811 N.3     1  UNL1       -0.2703
     38 C         140.4821  144.3636  162.1919 C.3     1  UNL1        0.0894
     39 C         140.5195  145.1004  163.4979 C.3     1  UNL1        0.0862
     40 N         139.3159  145.1017  164.3931 N.3     1  UNL1       -0.2951
     41 C         138.0749  144.3662  163.9823 C.3     1  UNL1        0.0862
     42 C         138.0375  143.6294  162.6762 C.3     1  UNL1        0.0894
     43 H         139.0495  146.0772  164.5268 H       1  UNL1        0.1233
@<TRIPOS>BOND
     1    24    25   ar
     2    25    26   ar
     3    26    27   ar
     4    27    28   ar
     5    28    29   ar
     6    28    30    1
     7    30    31    1
     8    31    32    1
     9    32    33    1
    10    33    23    1
    11    23    34    1
    12    34    35    1
    13    35    36    1
    14    36    37    1
    15    37    38    1
    16    38    39    1
    17    39    40    1
    18    40    41    1
    19    41    42    1
    20    23     1    1
    21     1     2    1
    22     2     3   ar
    23     3     4   ar
    24     4     5   ar
    25     5     6   ar
    26     6     7   ar
    27     7     8   ar
    28     8     9   ar
    29     9    10   ar
    30    10    11   ar
    31    11    12   ar
    32    12    13   ar
    33    13    15    1
    34    15    16    1
    35    16    17    1
    36    17    18    1
    37    18    19    1
    38    19    20    1
    39    20    21    1
    40    21    22    1
    41    13    14   ar
    42    29    24   ar
    43    42    37    1
    44    14     2   ar
    45    33    27    1
    46    14     6   ar
    47    12     7   ar
    48    22    17    1
    49    40    43    1
@<TRIPOS>MOLECULE
*****
 43 49 0 0 0
SMALL
GASTEIGER

@<TRIPOS>ATOM
      1 C         140.1263  139.6101  164.2350 C.3     1  UNL1        0.1204
      2 C         141.3335  139.2757  163.4098 C.ar    1  UNL1        0.0909
      3 N         142.6905  139.2364  164.0475 N.ar    1  UNL1       -0.2453
      4 C         143.8976  138.9021  163.2223 C.ar    1  UNL1        0.0986
      5 C         143.7477  138.6070  161.7592 C.ar    1  UNL1        0.0221
      6 C         142.3906  138.6463  161.1215 C.ar    1  UNL1        0.0199
      7 C         141.9362  138.4025  159.7129 C.ar    1  UNL1        0.0173
      8 C         142.6850  138.0370  158.4657 C.ar    1  UNL1        0.0015
      9 C         141.9459  137.8552  157.1732 C.ar    1  UNL1        0.0001
     10 C         140.4579  138.0389  157.1279 C.ar    1  UNL1        0.0015
     11 C         139.7090  138.4044  158.3751 C.ar    1  UNL1        0.0172
     12 C         140.4481  138.5862  159.6676 C.ar    1  UNL1        0.0599
     13 N         139.9830  138.9435  161.0482 N.ar    1  UNL1       -0.3248
     14 C         141.1835  138.9807  161.9467 C.ar    1  UNL1        0.0750
     15 C         138.5661  139.2159  161.4582 C.3     1  UNL1        0.1233
     16 C         138.0418  140.6212  161.4570 C.3     1  UNL1        0.0970
     17 N         138.6733  141.6566  160.5743 N.3     1  UNL1       -0.2668
     18 C         139.6816  142.6115  161.1411 C.3     1  UNL1        0.1047
     19 C         140.3131  143.6469  160.2584 C.3     1  UNL1        0.1595
     20 O         139.9362  143.7274  158.8088 O.3     1  UNL1       -0.3508
     21 C         138.9279  142.7724  158.2419 C.3     1  UNL1        0.1595
     22 C         138.2964  141.7370  159.1246 C.3     1  UNL1        0.1047
     23 N         140.1960  140.7070  165.2557 N.3     1  UNL1       -0.2639
     24 C         143.3051  144.9125  163.8782 C.ar    1  UNL1        0.0203
     25 C         143.5904  143.4954  164.2793 C.ar    1  UNL1        0.0985
     26 N         142.4589  142.5659  164.6048 N.ar    1  UNL1       -0.2471
     27 C         141.0423  143.0534  164.5291 C.ar    1  UNL1        0.0695
     28 C         140.7572  144.4704  164.1281 C.ar    1  UNL1       -0.0073
     29 C         141.8886  145.3999  163.8026 C.ar    1  UNL1       -0.0015
     30 C         139.3407  144.9579  164.0524 C.3     1  UNL1        0.0277
     31 C         138.2092  144.0283  164.3779 C.3     1  UNL1        0.0065
     32 C         138.4944  142.6114  164.7790 C.3     1  UNL1        0.0224
     33 C         139.9109  142.1239  164.8546 C.3     1  UNL1        0.0981
     34 C         140.5509  140.3869  166.6776 C.3     1  UNL1        0.0741
     35 C         139.4882  139.9244  167.6299 C.3     1  UNL1        0.0347
     36 C         139.6212  140.2073  169.0970 C.3     1  UNL1        0.0736
     37 N         140.4994  141.3284  169.5681 N.3     1  UNL1       -0.2703
     38 C         141.8809  141.0369  170.0742 C.3     1  UNL1        0.0894
     39 C         142.7591  142.1580  170.5453 C.3     1  UNL1        0.0862
     40 N         142.2557  143.5705  170.5103 N.3     1  UNL1       -0.2951
     41 C         140.8742  143.8620  170.0043 C.3     1  UNL1        0.0862
     42 C         139.9959  142.7409  169.5332 C.3     1  UNL1        0.0894
     43 H         142.9017  144.0989  169.9239 H       1  UNL1        0.1233
@<TRIPOS>BOND
     1    24    25   ar
     2    25    26   ar
     3    26    27   ar
     4    27    28   ar
     5    28    29   ar
     6    28    30    1
     7    30    31    1
     8    31    32    1
     9    32    33    1
    10    33    23    1
    11    23    34    1
    12    34    35    1
    13    35    36    1
    14    36    37    1
    15    37    38    1
    16    38    39    1
    17    39    40    1
    18    40    41    1
    19    41    42    1
    20    23     1    1
    21     1     2    1
    22     2     3   ar
    23     3     4   ar
    24     4     5   ar
    25     5     6   ar
    26     6     7   ar
    27     7     8   ar
    28     8     9   ar
    29     9    10   ar
    30    10    11   ar
    31    11    12   ar
    32    12    13   ar
    33    13    15    1
    34    15    16    1
    35    16    17    1
    36    17    18    1
    37    18    19    1
    38    19    20    1
    39    20    21    1
    40    21    22    1
    41    13    14   ar
    42    29    24   ar
    43    42    37    1
    44    14     2   ar
    45    33    27    1
    46    14     6   ar
    47    12     7   ar
    48    22    17    1
    49    40    43    1
