@<TRIPOS>MOLECULE
*****
 32 36 0 0 0
SMALL
GASTEIGER

@<TRIPOS>ATOM
      1 N         140.0960  138.0682  162.3918 N.3     1  UNL1       -0.2695
      2 C         139.9905  137.8805  163.8762 C.3     1  UNL1        0.0939
      3 C         141.1901  138.1065  164.7480 C.3     1  UNL1        0.1107
      4 N         142.4952  138.5202  164.1352 N.am    1  UNL1       -0.2764
      5 C         143.6948  138.7462  165.0069 C.2     1  UNL1        0.2301
      6 O         145.0000  139.1599  164.3942 O.2     1  UNL1       -0.2745
      7 C         142.6008  138.7079  162.6508 C.3     1  UNL1        0.1107
      8 C         141.4012  138.4819  161.7790 C.3     1  UNL1        0.0939
      9 C         138.8965  137.8422  161.5201 C.3     1  UNL1        0.0769
     10 C         137.6924  138.7262  161.6573 C.3     1  UNL1        0.0437
     11 O         138.6512  145.7704  161.9591 O.2     1  UNL1       -0.2449
     12 C         138.3138  144.5619  162.7810 C.2     1  UNL1        0.3413
     13 O         138.0208  144.5499  164.2521 O.3     1  UNL1       -0.4404
     14 C         137.7360  143.1338  164.6564 C.3     1  UNL1        0.2356
     15 C         137.8529  142.2706  163.4353 C.ar    1  UNL1        0.0272
     16 C         137.6804  140.7949  163.2290 C.ar    1  UNL1       -0.0047
     17 C         137.8649  140.2019  161.8636 C.ar    1  UNL1       -0.0210
     18 C         138.2220  141.0845  160.7046 C.ar    1  UNL1       -0.0040
     19 C         138.3945  142.5602  160.9108 C.ar    1  UNL1        0.0059
     20 C         138.2100  143.1532  162.2762 C.ar    1  UNL1        0.0751
     21 C         143.5893  138.5584  166.4914 C.3     1  UNL1        0.1116
     22 C         142.8194  139.5444  167.3192 C.ar    1  UNL1       -0.0130
     23 C         142.2838  139.1408  168.6609 C.ar    1  UNL1       -0.0022
     24 C         141.5140  140.1267  169.4887 C.ar    1  UNL1        0.0190
     25 C         141.2798  141.5163  168.9748 C.ar    1  UNL1        0.0862
     26 C         141.8154  141.9199  167.6331 C.ar    1  UNL1        0.0190
     27 C         142.5852  140.9340  166.8053 C.ar    1  UNL1       -0.0022
     28 N         140.5100  142.5023  169.8026 N.ar    1  UNL1       -0.1886
     29 C         140.6079  143.9963  169.7119 C.ar    1  UNL1        0.2258
     30 N         139.6655  144.5847  170.7197 N.ar    1  UNL1       -0.1045
     31 N         138.9851  143.4543  171.4333 N.ar    1  UNL1       -0.0222
     32 N         139.5070  142.1673  170.8666 N.ar    1  UNL1       -0.0385
@<TRIPOS>BOND
     1    11    12    2
     2    12    13    1
     3    13    14    1
     4    14    15    1
     5    15    16   ar
     6    16    17   ar
     7    17    10    1
     8    10     9    1
     9     9     1    1
    10     1     2    1
    11     2     3    1
    12     3     4    1
    13     4     5   am
    14     5     6    2
    15     5    21    1
    16    21    22    1
    17    22    23   ar
    18    23    24   ar
    19    24    25   ar
    20    25    28    1
    21    28    29   ar
    22    29    30   ar
    23    30    31   ar
    24    31    32   ar
    25    25    26   ar
    26    26    27   ar
    27     4     7    1
    28     7     8    1
    29    17    18   ar
    30    18    19   ar
    31    19    20   ar
    32    20    12    1
    33    20    15   ar
    34     8     1    1
    35    27    22   ar
    36    32    28   ar
@<TRIPOS>MOLECULE
*****
 32 36 0 0 0
SMALL
GASTEIGER

@<TRIPOS>ATOM
      1 N         142.7725  141.4482  161.0905 N.3     1  UNL1       -0.2695
      2 C         143.3003  141.4211  162.4943 C.3     1  UNL1        0.0939
      3 C         142.9503  140.2819  163.4053 C.3     1  UNL1        0.1107
      4 N         142.0725  139.1699  162.9124 N.am    1  UNL1       -0.2764
      5 C         141.7226  138.0308  163.8234 C.2     1  UNL1        0.2301
      6 O         140.8448  136.9186  163.3305 O.2     1  UNL1       -0.2745
      7 C         141.5448  139.1969  161.5086 C.3     1  UNL1        0.1107
      8 C         141.8948  140.3360  160.5976 C.3     1  UNL1        0.0939
      9 C         143.1225  142.5873  160.1795 C.3     1  UNL1        0.0769
     10 C         142.3855  143.8891  160.2893 C.3     1  UNL1        0.0437
     11 O         138.5930  145.3921  166.1194 O.2     1  UNL1       -0.2449
     12 C         138.5264  144.7362  164.7720 C.2     1  UNL1        0.3413
     13 O         137.3249  144.0633  164.1774 O.3     1  UNL1       -0.4404
     14 C         137.7056  143.5494  162.8206 C.3     1  UNL1        0.2356
     15 C         139.1424  143.9046  162.5767 C.ar    1  UNL1        0.0272
     16 C         140.0543  143.6549  161.4122 C.ar    1  UNL1       -0.0047
     17 C         141.4735  144.1388  161.4538 C.ar    1  UNL1       -0.0210
     18 C         141.9808  144.8723  162.6599 C.ar    1  UNL1       -0.0040
     19 C         141.0689  145.1220  163.8243 C.ar    1  UNL1        0.0059
     20 C         139.6497  144.6381  163.7827 C.ar    1  UNL1        0.0751
     21 C         142.2503  138.0037  165.2272 C.3     1  UNL1        0.1116
     22 C         141.7696  139.0117  166.2288 C.ar    1  UNL1       -0.0130
     23 C         140.3214  139.4006  166.2655 C.ar    1  UNL1       -0.0022
     24 C         139.8407  140.4085  167.2670 C.ar    1  UNL1        0.0190
     25 C         140.8082  141.0275  168.2317 C.ar    1  UNL1        0.0862
     26 C         142.2565  140.6386  168.1949 C.ar    1  UNL1        0.0190
     27 C         142.7372  139.6307  167.1934 C.ar    1  UNL1       -0.0022
     28 N         140.3275  142.0355  169.2332 N.ar    1  UNL1       -0.1886
     29 C         140.6679  143.4963  169.2469 C.ar    1  UNL1        0.2258
     30 N         139.9728  144.1232  170.4190 N.ar    1  UNL1       -0.1045
     31 N         139.2028  143.0499  171.1297 N.ar    1  UNL1       -0.0222
     32 N         139.4221  141.7596  170.3968 N.ar    1  UNL1       -0.0385
@<TRIPOS>BOND
     1    11    12    2
     2    12    13    1
     3    13    14    1
     4    14    15    1
     5    15    16   ar
     6    16    17   ar
     7    17    10    1
     8    10     9    1
     9     9     1    1
    10     1     2    1
    11     2     3    1
    12     3     4    1
    13     4     5   am
    14     5     6    2
    15     5    21    1
    16    21    22    1
    17    22    23   ar
    18    23    24   ar
    19    24    25   ar
    20    25    28    1
    21    28    29   ar
    22    29    30   ar
    23    30    31   ar
    24    31    32   ar
    25    25    26   ar
    26    26    27   ar
    27     4     7    1
    28     7     8    1
    29    17    18   ar
    30    18    19   ar
    31    19    20   ar
    32    20    12    1
    33    20    15   ar
    34     8     1    1
    35    27    22   ar
    36    32    28   ar
@<TRIPOS>MOLECULE
*****
 32 36 0 0 0
SMALL
GASTEIGER

@<TRIPOS>ATOM
      1 N         139.8430  142.2074  160.8691 N.3     1  UNL1       -0.2695
      2 C         138.9414  142.1132  162.0641 C.3     1  UNL1        0.0939
      3 C         138.8643  140.8357  162.8466 C.3     1  UNL1        0.1107
      4 N         139.6887  139.6525  162.4340 N.am    1  UNL1       -0.2764
      5 C         139.6116  138.3751  163.2164 C.2     1  UNL1        0.2301
      6 O         140.4360  137.1918  162.8038 O.2     1  UNL1       -0.2745
      7 C         140.5903  139.7467  161.2389 C.3     1  UNL1        0.1107
      8 C         140.6675  141.0241  160.4564 C.3     1  UNL1        0.0939
      9 C         139.9202  143.4847  160.0866 C.3     1  UNL1        0.0769
     10 C         140.9719  144.5028  160.4146 C.3     1  UNL1        0.0437
     11 O         144.9724  143.9122  166.2694 O.2     1  UNL1       -0.2449
     12 C         144.8053  143.4097  164.8659 C.2     1  UNL1        0.3413
     13 O         145.6729  142.3937  164.1840 O.3     1  UNL1       -0.4404
     14 C         145.1449  142.1911  162.7947 C.3     1  UNL1        0.2356
     15 C         143.9511  143.0818  162.6180 C.ar    1  UNL1        0.0272
     16 C         143.0280  143.3044  161.4568 C.ar    1  UNL1       -0.0047
     17 C         141.8950  144.2802  161.5758 C.ar    1  UNL1       -0.0210
     18 C         141.6851  145.0333  162.8559 C.ar    1  UNL1       -0.0040
     19 C         142.6081  144.8107  164.0170 C.ar    1  UNL1        0.0059
     20 C         143.7411  143.8350  163.8981 C.ar    1  UNL1        0.0751
     21 C         138.7100  138.2809  164.4115 C.3     1  UNL1        0.1116
     22 C         139.1333  138.8808  165.7195 C.ar    1  UNL1       -0.0130
     23 C         140.5357  139.3835  165.8951 C.ar    1  UNL1       -0.0022
     24 C         140.9590  139.9835  167.2031 C.ar    1  UNL1        0.0190
     25 C         139.9801  140.0807  168.3354 C.ar    1  UNL1        0.0862
     26 C         138.5778  139.5780  168.1598 C.ar    1  UNL1        0.0190
     27 C         138.1544  138.9781  166.8519 C.ar    1  UNL1       -0.0022
     28 N         140.4035  140.6807  169.6435 N.ar    1  UNL1       -0.1886
     29 C         141.6912  140.4082  170.3628 C.ar    1  UNL1        0.2258
     30 N         141.6970  141.2176  171.6256 N.ar    1  UNL1       -0.1045
     31 N         140.4128  141.9903  171.6868 N.ar    1  UNL1       -0.0222
     32 N         139.6134  141.6585  170.4618 N.ar    1  UNL1       -0.0385
@<TRIPOS>BOND
     1    11    12    2
     2    12    13    1
     3    13    14    1
     4    14    15    1
     5    15    16   ar
     6    16    17   ar
     7    17    10    1
     8    10     9    1
     9     9     1    1
    10     1     2    1
    11     2     3    1
    12     3     4    1
    13     4     5   am
    14     5     6    2
    15     5    21    1
    16    21    22    1
    17    22    23   ar
    18    23    24   ar
    19    24    25   ar
    20    25    28    1
    21    28    29   ar
    22    29    30   ar
    23    30    31   ar
    24    31    32   ar
    25    25    26   ar
    26    26    27   ar
    27     4     7    1
    28     7     8    1
    29    17    18   ar
    30    18    19   ar
    31    19    20   ar
    32    20    12    1
    33    20    15   ar
    34     8     1    1
    35    27    22   ar
    36    32    28   ar
@<TRIPOS>MOLECULE
*****
 32 36 0 0 0
SMALL
GASTEIGER

@<TRIPOS>ATOM
      1 N         138.6394  140.3503  159.9563 N.3     1  UNL1       -0.2695
      2 C         137.7742  140.3179  161.1812 C.3     1  UNL1        0.0939
      3 C         138.1402  139.4318  162.3348 C.3     1  UNL1        0.1107
      4 N         139.3715  138.5780  162.2635 N.am    1  UNL1       -0.2764
      5 C         139.7375  137.6919  163.4171 C.2     1  UNL1        0.2301
      6 O         140.9688  136.8381  163.3458 O.2     1  UNL1       -0.2745
      7 C         140.2367  138.6104  161.0386 C.3     1  UNL1        0.1107
      8 C         139.8707  139.4965  159.8850 C.3     1  UNL1        0.0939
      9 C         138.2733  141.2364  158.8027 C.3     1  UNL1        0.0769
     10 C         138.6645  142.6845  158.8157 C.3     1  UNL1        0.0437
     11 O         144.3314  144.7491  162.5913 O.2     1  UNL1       -0.2449
     12 C         142.8364  144.6314  162.6248 C.2     1  UNL1        0.3413
     13 O         141.9463  145.0262  163.7657 O.3     1  UNL1       -0.4404
     14 C         140.5288  144.7370  163.3693 C.3     1  UNL1        0.2356
     15 C         140.5429  144.1635  161.9833 C.ar    1  UNL1        0.0272
     16 C         139.4414  143.6922  161.0809 C.ar    1  UNL1       -0.0047
     17 C         139.7660  143.1557  159.7183 C.ar    1  UNL1       -0.0210
     18 C         141.1922  143.0905  159.2581 C.ar    1  UNL1       -0.0040
     19 C         142.2938  143.5617  160.1606 C.ar    1  UNL1        0.0059
     20 C         141.9691  144.0982  161.5232 C.ar    1  UNL1        0.0751
     21 C         138.8723  137.6595  164.6420 C.3     1  UNL1        0.1116
     22 C         139.1827  138.5568  165.8034 C.ar    1  UNL1       -0.0130
     23 C         140.4861  139.2975  165.8514 C.ar    1  UNL1       -0.0022
     24 C         140.7966  140.1947  167.0127 C.ar    1  UNL1        0.0190
     25 C         139.8035  140.3511  168.1260 C.ar    1  UNL1        0.0862
     26 C         138.5001  139.6104  168.0779 C.ar    1  UNL1        0.0190
     27 C         138.1897  138.7132  166.9166 C.ar    1  UNL1       -0.0022
     28 N         140.1139  141.2483  169.2874 N.ar    1  UNL1       -0.1886
     29 C         140.6263  142.6555  169.2021 C.ar    1  UNL1        0.2258
     30 N         140.7954  143.1727  170.5999 N.ar    1  UNL1       -0.1045
     31 N         140.3876  142.0851  171.5491 N.ar    1  UNL1       -0.0222
     32 N         139.9664  140.8958  170.7379 N.ar    1  UNL1       -0.0385
@<TRIPOS>BOND
     1    11    12    2
     2    12    13    1
     3    13    14    1
     4    14    15    1
     5    15    16   ar
     6    16    17   ar
     7    17    10    1
     8    10     9    1
     9     9     1    1
    10     1     2    1
    11     2     3    1
    12     3     4    1
    13     4     5   am
    14     5     6    2
    15     5    21    1
    16    21    22    1
    17    22    23   ar
    18    23    24   ar
    19    24    25   ar
    20    25    28    1
    21    28    29   ar
    22    29    30   ar
    23    30    31   ar
    24    31    32   ar
    25    25    26   ar
    26    26    27   ar
    27     4     7    1
    28     7     8    1
    29    17    18   ar
    30    18    19   ar
    31    19    20   ar
    32    20    12    1
    33    20    15   ar
    34     8     1    1
    35    27    22   ar
    36    32    28   ar
@<TRIPOS>MOLECULE
*****
 32 36 0 0 0
SMALL
GASTEIGER

@<TRIPOS>ATOM
      1 N         141.6384  140.4153  160.3797 N.3     1  UNL1       -0.2695
      2 C         141.5748  139.4546  161.5300 C.3     1  UNL1        0.0939
      3 C         140.4044  139.4839  162.4678 C.3     1  UNL1        0.1107
      4 N         139.2977  140.4738  162.2553 N.am    1  UNL1       -0.2764
      5 C         138.1274  140.5030  163.1931 C.2     1  UNL1        0.2301
      6 O         137.0206  141.4930  162.9807 O.2     1  UNL1       -0.2745
      7 C         139.3613  141.4345  161.1051 C.3     1  UNL1        0.1107
      8 C         140.5315  141.4052  160.1673 C.3     1  UNL1        0.0939
      9 C         142.8087  140.3861  159.4419 C.3     1  UNL1        0.0769
     10 C         144.1300  140.9497  159.8736 C.3     1  UNL1        0.0437
     11 O         144.9940  143.7368  166.3635 O.2     1  UNL1       -0.2449
     12 C         144.4665  144.0208  164.9883 C.2     1  UNL1        0.3413
     13 O         143.8261  145.2998  164.5364 O.3     1  UNL1       -0.4404
     14 C         143.4506  145.1451  163.0925 C.3     1  UNL1        0.2356
     15 C         143.8588  143.7706  162.6519 C.ar    1  UNL1        0.0272
     16 C         143.7399  143.0619  161.3353 C.ar    1  UNL1       -0.0047
     17 C         144.2489  141.6584  161.1903 C.ar    1  UNL1       -0.0210
     18 C         144.8768  140.9636  162.3621 C.ar    1  UNL1       -0.0040
     19 C         144.9956  141.6722  163.6787 C.ar    1  UNL1        0.0059
     20 C         144.4867  143.0757  163.8237 C.ar    1  UNL1        0.0751
     21 C         138.0639  139.5424  164.3434 C.3     1  UNL1        0.1116
     22 C         138.6098  139.9392  165.6830 C.ar    1  UNL1       -0.0130
     23 C         139.5212  141.1248  165.8002 C.ar    1  UNL1       -0.0022
     24 C         140.0671  141.5216  167.1397 C.ar    1  UNL1        0.0190
     25 C         139.7016  140.7329  168.3621 C.ar    1  UNL1        0.0862
     26 C         138.7901  139.5474  168.2450 C.ar    1  UNL1        0.0190
     27 C         138.2442  139.1505  166.9054 C.ar    1  UNL1       -0.0022
     28 N         140.2475  141.1298  169.7018 N.ar    1  UNL1       -0.1886
     29 C         141.5056  140.6087  170.3307 C.ar    1  UNL1        0.2258
     30 N         141.6668  141.2743  171.6653 N.ar    1  UNL1       -0.1045
     31 N         140.5082  142.2067  171.8612 N.ar    1  UNL1       -0.0222
     32 N         139.6310  142.1174  170.6476 N.ar    1  UNL1       -0.0385
@<TRIPOS>BOND
     1    11    12    2
     2    12    13    1
     3    13    14    1
     4    14    15    1
     5    15    16   ar
     6    16    17   ar
     7    17    10    1
     8    10     9    1
     9     9     1    1
    10     1     2    1
    11     2     3    1
    12     3     4    1
    13     4     5   am
    14     5     6    2
    15     5    21    1
    16    21    22    1
    17    22    23   ar
    18    23    24   ar
    19    24    25   ar
    20    25    28    1
    21    28    29   ar
    22    29    30   ar
    23    30    31   ar
    24    31    32   ar
    25    25    26   ar
    26    26    27   ar
    27     4     7    1
    28     7     8    1
    29    17    18   ar
    30    18    19   ar
    31    19    20   ar
    32    20    12    1
    33    20    15   ar
    34     8     1    1
    35    27    22   ar
    36    32    28   ar
@<TRIPOS>MOLECULE
*****
 32 36 0 0 0
SMALL
GASTEIGER

@<TRIPOS>ATOM
      1 N         142.1288  142.0636  159.6975 N.3     1  UNL1       -0.2695
      2 C         141.8024  140.8482  160.5138 C.3     1  UNL1        0.0939
      3 C         142.7096  140.4306  161.6331 C.3     1  UNL1        0.1107
      4 N         143.9431  141.2284  161.9360 N.am    1  UNL1       -0.2764
      5 C         144.8503  140.8108  163.0553 C.2     1  UNL1        0.2301
      6 O         146.0839  141.6086  163.3582 O.2     1  UNL1       -0.2745
      7 C         144.2696  142.4438  161.1197 C.3     1  UNL1        0.1107
      8 C         143.3625  142.8614  160.0005 C.3     1  UNL1        0.0939
      9 C         141.2217  142.4812  158.5783 C.3     1  UNL1        0.0769
     10 C         140.0465  143.3705  158.8575 C.3     1  UNL1        0.0437
     11 O         138.5374  145.3163  165.5335 O.2     1  UNL1       -0.2449
     12 C         138.2771  144.2666  164.4941 C.2     1  UNL1        0.3413
     13 O         137.4052  143.0575  164.6611 O.3     1  UNL1       -0.4404
     14 C         137.4322  142.2854  163.3754 C.3     1  UNL1        0.2356
     15 C         138.3209  143.0172  162.4138 C.ar    1  UNL1        0.0272
     16 C         138.7220  142.7268  160.9979 C.ar    1  UNL1       -0.0047
     17 C         139.6453  143.6609  160.2734 C.ar    1  UNL1       -0.0210
     18 C         140.1675  144.8854  160.9648 C.ar    1  UNL1       -0.0040
     19 C         139.7663  145.1758  162.3807 C.ar    1  UNL1        0.0059
     20 C         138.8430  144.2417  163.1051 C.ar    1  UNL1        0.0751
     21 C         144.5238  139.5955  163.8716 C.3     1  UNL1        0.1116
     22 C         143.7885  139.7401  165.1710 C.ar    1  UNL1       -0.0130
     23 C         143.0934  141.0279  165.5001 C.ar    1  UNL1       -0.0022
     24 C         142.3581  141.1726  166.7994 C.ar    1  UNL1        0.0190
     25 C         142.3180  140.0294  167.7697 C.ar    1  UNL1        0.0862
     26 C         143.0131  138.7416  167.4407 C.ar    1  UNL1        0.0190
     27 C         143.7484  138.5969  166.1413 C.ar    1  UNL1       -0.0022
     28 N         141.5827  140.1741  169.0692 N.ar    1  UNL1       -0.1886
     29 C         142.1428  140.7384  170.3411 C.ar    1  UNL1        0.2258
     30 N         141.0644  140.6928  171.3828 N.ar    1  UNL1       -0.1045
     31 N         139.8378  140.1004  170.7547 N.ar    1  UNL1       -0.0222
     32 N         140.1582  139.7797  169.3248 N.ar    1  UNL1       -0.0385
@<TRIPOS>BOND
     1    11    12    2
     2    12    13    1
     3    13    14    1
     4    14    15    1
     5    15    16   ar
     6    16    17   ar
     7    17    10    1
     8    10     9    1
     9     9     1    1
    10     1     2    1
    11     2     3    1
    12     3     4    1
    13     4     5   am
    14     5     6    2
    15     5    21    1
    16    21    22    1
    17    22    23   ar
    18    23    24   ar
    19    24    25   ar
    20    25    28    1
    21    28    29   ar
    22    29    30   ar
    23    30    31   ar
    24    31    32   ar
    25    25    26   ar
    26    26    27   ar
    27     4     7    1
    28     7     8    1
    29    17    18   ar
    30    18    19   ar
    31    19    20   ar
    32    20    12    1
    33    20    15   ar
    34     8     1    1
    35    27    22   ar
    36    32    28   ar
@<TRIPOS>MOLECULE
*****
 32 36 0 0 0
SMALL
GASTEIGER

@<TRIPOS>ATOM
      1 N         142.0791  138.7106  160.1329 N.3     1  UNL1       -0.2695
      2 C         141.7641  137.9902  161.4103 C.3     1  UNL1        0.0939
      3 C         142.5315  138.3079  162.6594 C.3     1  UNL1        0.1107
      4 N         143.6138  139.3461  162.6311 N.am    1  UNL1       -0.2764
      5 C         144.3811  139.6638  163.8802 C.2     1  UNL1        0.2301
      6 O         145.4635  140.7020  163.8519 O.2     1  UNL1       -0.2745
      7 C         143.9288  140.0665  161.3537 C.3     1  UNL1        0.1107
      8 C         143.1614  139.7488  160.1046 C.3     1  UNL1        0.0939
      9 C         141.3117  138.3929  158.8838 C.3     1  UNL1        0.0769
     10 C         139.9620  139.0064  158.6563 C.3     1  UNL1        0.0437
     11 O         138.0292  144.7656  162.3615 O.2     1  UNL1       -0.2449
     12 C         137.9588  143.2674  162.3353 C.2     1  UNL1        0.3413
     13 O         137.2849  142.3986  163.3556 O.3     1  UNL1       -0.4404
     14 C         137.4595  140.9693  162.9351 C.3     1  UNL1        0.2356
     15 C         138.2412  140.9549  161.6550 C.ar    1  UNL1        0.0272
     16 C         138.7119  139.8319  160.7790 C.ar    1  UNL1       -0.0047
     17 C         139.4912  140.1293  159.5324 C.ar    1  UNL1       -0.0210
     18 C         139.7998  141.5497  159.1617 C.ar    1  UNL1       -0.0040
     19 C         139.3291  142.6726  160.0376 C.ar    1  UNL1        0.0059
     20 C         138.5498  142.3752  161.2843 C.ar    1  UNL1        0.0751
     21 C         144.0661  138.9433  165.1576 C.3     1  UNL1        0.1116
     22 C         143.3408  139.6552  166.2609 C.ar    1  UNL1       -0.0130
     23 C         142.9365  141.0895  166.0894 C.ar    1  UNL1       -0.0022
     24 C         142.2112  141.8013  167.1926 C.ar    1  UNL1        0.0190
     25 C         141.8904  141.0790  168.4674 C.ar    1  UNL1        0.0862
     26 C         142.2947  139.6447  168.6390 C.ar    1  UNL1        0.0190
     27 C         143.0200  138.9328  167.5357 C.ar    1  UNL1       -0.0022
     28 N         141.1651  141.7908  169.5708 N.ar    1  UNL1       -0.1886
     29 C         141.2002  141.4290  171.0260 C.ar    1  UNL1        0.2258
     30 N         140.3342  142.4040  171.7671 N.ar    1  UNL1       -0.1045
     31 N         139.7638  143.3686  170.7699 N.ar    1  UNL1       -0.0222
     32 N         140.2773  142.9895  169.4125 N.ar    1  UNL1       -0.0385
@<TRIPOS>BOND
     1    11    12    2
     2    12    13    1
     3    13    14    1
     4    14    15    1
     5    15    16   ar
     6    16    17   ar
     7    17    10    1
     8    10     9    1
     9     9     1    1
    10     1     2    1
    11     2     3    1
    12     3     4    1
    13     4     5   am
    14     5     6    2
    15     5    21    1
    16    21    22    1
    17    22    23   ar
    18    23    24   ar
    19    24    25   ar
    20    25    28    1
    21    28    29   ar
    22    29    30   ar
    23    30    31   ar
    24    31    32   ar
    25    25    26   ar
    26    26    27   ar
    27     4     7    1
    28     7     8    1
    29    17    18   ar
    30    18    19   ar
    31    19    20   ar
    32    20    12    1
    33    20    15   ar
    34     8     1    1
    35    27    22   ar
    36    32    28   ar
@<TRIPOS>MOLECULE
*****
 32 36 0 0 0
SMALL
GASTEIGER

@<TRIPOS>ATOM
      1 N         138.4143  141.3001  160.5665 N.3     1  UNL1       -0.2695
      2 C         137.9429  141.9211  161.8480 C.3     1  UNL1        0.0939
      3 C         138.0378  141.1530  163.1330 C.3     1  UNL1        0.1107
      4 N         138.6041  139.7641  163.1365 N.am    1  UNL1       -0.2764
      5 C         138.6989  138.9961  164.4215 C.2     1  UNL1        0.2301
      6 O         139.2652  137.6071  164.4250 O.2     1  UNL1       -0.2745
      7 C         139.0755  139.1431  161.8551 C.3     1  UNL1        0.1107
      8 C         138.9807  139.9110  160.5701 C.3     1  UNL1        0.0939
      9 C         138.3195  142.0680  159.2815 C.3     1  UNL1        0.0769
     10 C         139.3824  143.0638  158.9227 C.3     1  UNL1        0.0437
     11 O         143.7901  145.4254  163.9850 O.2     1  UNL1       -0.2449
     12 C         143.6635  144.4470  162.8550 C.2     1  UNL1        0.3413
     13 O         144.7164  143.4776  162.4061 O.3     1  UNL1       -0.4404
     14 C         144.1654  142.6978  161.2492 C.3     1  UNL1        0.2356
     15 C         142.7719  143.1853  160.9832 C.ar    1  UNL1        0.0272
     16 C         141.7455  142.7844  159.9656 C.ar    1  UNL1       -0.0047
     17 C         140.4089  143.4646  159.9404 C.ar    1  UNL1       -0.0210
     18 C         140.0987  144.5457  160.9329 C.ar    1  UNL1       -0.0040
     19 C         141.1251  144.9466  161.9505 C.ar    1  UNL1        0.0059
     20 C         142.4617  144.2664  161.9757 C.ar    1  UNL1        0.0751
     21 C         138.2275  139.6171  165.7029 C.3     1  UNL1        0.1116
     22 C         139.2029  140.3229  166.5977 C.ar    1  UNL1       -0.0130
     23 C         139.4207  139.8377  168.0002 C.ar    1  UNL1       -0.0022
     24 C         140.3961  140.5434  168.8950 C.ar    1  UNL1        0.0190
     25 C         141.1536  141.7343  168.3872 C.ar    1  UNL1        0.0862
     26 C         140.9357  142.2195  166.9846 C.ar    1  UNL1        0.0190
     27 C         139.9604  141.5138  166.0899 C.ar    1  UNL1       -0.0022
     28 N         142.1290  142.4401  169.2819 N.ar    1  UNL1       -0.1886
     29 C         143.6184  142.2621  169.2768 C.ar    1  UNL1        0.2258
     30 N         144.1961  143.1597  170.3306 N.ar    1  UNL1       -0.1045
     31 N         143.0637  143.8926  170.9870 N.ar    1  UNL1       -0.0222
     32 N         141.7862  143.4478  170.3389 N.ar    1  UNL1       -0.0385
@<TRIPOS>BOND
     1    11    12    2
     2    12    13    1
     3    13    14    1
     4    14    15    1
     5    15    16   ar
     6    16    17   ar
     7    17    10    1
     8    10     9    1
     9     9     1    1
    10     1     2    1
    11     2     3    1
    12     3     4    1
    13     4     5   am
    14     5     6    2
    15     5    21    1
    16    21    22    1
    17    22    23   ar
    18    23    24   ar
    19    24    25   ar
    20    25    28    1
    21    28    29   ar
    22    29    30   ar
    23    30    31   ar
    24    31    32   ar
    25    25    26   ar
    26    26    27   ar
    27     4     7    1
    28     7     8    1
    29    17    18   ar
    30    18    19   ar
    31    19    20   ar
    32    20    12    1
    33    20    15   ar
    34     8     1    1
    35    27    22   ar
    36    32    28   ar
@<TRIPOS>MOLECULE
*****
 32 36 0 0 0
SMALL
GASTEIGER

@<TRIPOS>ATOM
      1 N         143.5091  139.5353  160.6087 N.3     1  UNL1       -0.2695
      2 C         144.2172  139.9557  161.8625 C.3     1  UNL1        0.0939
      3 C         143.7974  139.3898  163.1867 C.3     1  UNL1        0.1107
      4 N         142.6694  138.4036  163.2572 N.am    1  UNL1       -0.2764
      5 C         142.2496  137.8377  164.5814 C.2     1  UNL1        0.2301
      6 O         141.1216  136.8514  164.6519 O.2     1  UNL1       -0.2745
      7 C         141.9613  137.9832  162.0035 C.3     1  UNL1        0.1107
      8 C         142.3811  138.5490  160.6793 C.3     1  UNL1        0.0939
      9 C         143.9289  140.1012  159.2845 C.3     1  UNL1        0.0769
     10 C         143.6949  141.5513  158.9805 C.3     1  UNL1        0.0437
     11 O         138.3170  144.9221  162.1971 O.2     1  UNL1       -0.2449
     12 C         139.8048  144.7323  162.2136 C.2     1  UNL1        0.3413
     13 O         140.7659  145.3808  163.1652 O.3     1  UNL1       -0.4404
     14 C         142.1479  144.9100  162.8210 C.3     1  UNL1        0.2356
     15 C         142.0408  143.9704  161.6566 C.ar    1  UNL1        0.0272
     16 C         143.0749  143.2006  160.8897 C.ar    1  UNL1       -0.0047
     17 C         142.6609  142.3211  159.7474 C.ar    1  UNL1       -0.0210
     18 C         141.2127  142.2113  159.3720 C.ar    1  UNL1       -0.0040
     19 C         140.1787  142.9810  160.1389 C.ar    1  UNL1        0.0059
     20 C         140.5927  143.8606  161.2812 C.ar    1  UNL1        0.0751
     21 C         142.9578  138.2581  165.8351 C.3     1  UNL1        0.1116
     22 C         142.3245  139.2606  166.7539 C.ar    1  UNL1       -0.0130
     23 C         141.2914  140.2124  166.2279 C.ar    1  UNL1       -0.0022
     24 C         140.6582  141.2148  167.1467 C.ar    1  UNL1        0.0190
     25 C         141.0581  141.2654  168.5914 C.ar    1  UNL1        0.0862
     26 C         142.0912  140.3136  169.1175 C.ar    1  UNL1        0.0190
     27 C         142.7244  139.3112  168.1987 C.ar    1  UNL1       -0.0022
     28 N         140.4249  142.2678  169.5103 N.ar    1  UNL1       -0.1886
     29 C         140.6230  143.7540  169.4649 C.ar    1  UNL1        0.2258
     30 N         139.8029  144.3647  170.5624 N.ar    1  UNL1       -0.1045
     31 N         139.0979  143.2559  171.2861 N.ar    1  UNL1       -0.0222
     32 N         139.4823  141.9600  170.6358 N.ar    1  UNL1       -0.0385
@<TRIPOS>BOND
     1    11    12    2
     2    12    13    1
     3    13    14    1
     4    14    15    1
     5    15    16   ar
     6    16    17   ar
     7    17    10    1
     8    10     9    1
     9     9     1    1
    10     1     2    1
    11     2     3    1
    12     3     4    1
    13     4     5   am
    14     5     6    2
    15     5    21    1
    16    21    22    1
    17    22    23   ar
    18    23    24   ar
    19    24    25   ar
    20    25    28    1
    21    28    29   ar
    22    29    30   ar
    23    30    31   ar
    24    31    32   ar
    25    25    26   ar
    26    26    27   ar
    27     4     7    1
    28     7     8    1
    29    17    18   ar
    30    18    19   ar
    31    19    20   ar
    32    20    12    1
    33    20    15   ar
    34     8     1    1
    35    27    22   ar
    36    32    28   ar
