@<TRIPOS>MOLECULE
*****
 43 47 0 0 0
SMALL
GASTEIGER

@<TRIPOS>ATOM
      1 C         141.4362  140.6624  165.2597 C.ar    1  UNL1        0.1235
      2 N         141.4516  141.9141  164.4332 N.ar    1  UNL1       -0.2305
      3 C         141.3355  141.5187  162.9909 C.ar    1  UNL1        0.1013
      4 C         141.2482  140.0226  162.9260 C.ar    1  UNL1        0.1141
      5 C         141.1201  139.0739  161.7713 C.ar    1  UNL1        0.1432
      6 N         141.0579  139.6031  160.3691 N.pl3   1  UNL1       -0.3414
      7 N         141.0543  137.5959  162.0188 N.ar    1  UNL1       -0.2265
      8 C         141.1165  137.0667  163.4209 C.ar    1  UNL1        0.1193
      9 C         141.2446  138.0155  164.5757 C.ar    1  UNL1        0.1020
     10 N         141.3105  139.4934  164.3282 N.ar    1  UNL1       -0.2885
     11 H         141.1011  140.5731  160.2067 H       1  UNL1        0.1438
     12 H         140.9738  138.9803  159.6113 H       1  UNL1        0.1438
     13 C         142.5753  140.5535  170.0065 C.3     1  UNL1        0.0056
     14 C         141.2437  140.4100  169.3310 C.3     1  UNL1        0.0325
     15 C         139.7666  140.2189  169.1533 C.3     1  UNL1        0.0052
     16 C         139.1712  140.2145  167.7766 C.3     1  UNL1        0.0008
     17 C         140.0528  140.4010  166.5775 C.3     1  UNL1        0.0071
     18 C         141.5300  140.5921  166.7551 C.3     1  UNL1        0.0514
     19 C         142.9746  140.8076  166.4134 C.3     1  UNL1        0.0075
     20 C         142.1254  140.5965  168.1318 C.3     1  UNL1        0.0123
     21 C         140.8245  140.2733  170.7647 C.2     1  UNL1        0.0497
     22 O         139.6185  139.4546  171.1186 O.co2   1  UNL1       -0.5492
     23 O         141.6112  140.9553  171.8445 O.co2   1  UNL1       -0.5492
     24 C         141.3109  142.4549  161.8192 C.ar    1  UNL1        0.0192
     25 C         140.0211  143.0939  161.3967 C.ar    1  UNL1        0.0017
     26 C         139.9965  144.0301  160.2250 C.ar    1  UNL1        0.0046
     27 C         141.2616  144.3274  159.4758 C.ar    1  UNL1        0.0537
     28 C         142.5512  143.6885  159.8984 C.ar    1  UNL1        0.0046
     29 C         142.5758  142.7523  161.0701 C.ar    1  UNL1        0.0017
     30 C         141.2370  145.2637  158.3041 C.2     1  UNL1        0.2505
     31 O         142.4477  146.0859  157.9756 O.2     1  UNL1       -0.2698
     32 N         140.0016  145.3775  157.4611 N.am    1  UNL1       -0.2658
     33 H         139.2070  144.8378  157.6767 H       1  UNL1        0.1566
     34 C         139.9769  146.3138  156.2893 C.ar    1  UNL1        0.1343
     35 C         139.3190  147.6559  156.4153 C.ar    1  UNL1        0.0383
     36 C         139.2943  148.5920  155.2435 C.ar    1  UNL1        0.0757
     37 C         139.9276  148.1861  153.9458 C.ar    1  UNL1        0.0246
     38 C         140.5855  146.8440  153.8198 C.ar    1  UNL1        0.1003
     39 N         140.6101  145.9078  154.9916 N.ar    1  UNL1       -0.2290
     40 C         138.6364  149.9341  155.3696 C.3     1  UNL1        0.4187
     41 F         137.9785  151.2763  155.4956 F       1  UNL1       -0.1659
     42 F         138.1488  149.5665  156.7397 F       1  UNL1       -0.1659
     43 F         139.1241  150.3019  153.9995 F       1  UNL1       -0.1659
@<TRIPOS>UNITY_ATOM_ATTR
22 1
charge -1
@<TRIPOS>BOND
     1    14    13    1
     2    14    21    1
     3    21    22   ar
     4    21    23   ar
     5    14    15    1
     6    15    16    1
     7    16    17    1
     8    17    18    1
     9    18    19    1
    10    18     1    1
    11     1     2   ar
    12     2     3   ar
    13     3    24    1
    14    24    25   ar
    15    25    26   ar
    16    26    27   ar
    17    27    30    1
    18    30    31    2
    19    30    32   am
    20    32    34    1
    21    34    35   ar
    22    35    36   ar
    23    36    40    1
    24    40    41    1
    25    40    42    1
    26    40    43    1
    27    36    37   ar
    28    37    38   ar
    29    38    39   ar
    30    27    28   ar
    31    28    29   ar
    32     3     4   ar
    33     4     5   ar
    34     5     6    1
    35     5     7   ar
    36     7     8   ar
    37     8     9   ar
    38     9    10   ar
    39    18    20    1
    40    20    14    1
    41    10     1   ar
    42    29    24   ar
    43    10     4   ar
    44    39    34   ar
    45    32    33    1
    46     6    11    1
    47     6    12    1
@<TRIPOS>MOLECULE
*****
 43 47 0 0 0
SMALL
GASTEIGER

@<TRIPOS>ATOM
      1 C         140.1891  141.5250  165.1049 C.ar    1  UNL1        0.1235
      2 N         140.8243  140.5323  164.1770 N.ar    1  UNL1       -0.2305
      3 C         140.3698  140.8450  162.7821 C.ar    1  UNL1        0.1013
      4 C         139.4538  142.0310  162.8480 C.ar    1  UNL1        0.1141
      5 C         138.7069  142.7825  161.7862 C.ar    1  UNL1        0.1432
      6 N         138.8186  142.3623  160.3506 N.pl3   1  UNL1       -0.3414
      7 N         137.8484  143.9543  162.1600 N.ar    1  UNL1       -0.2265
      8 C         137.7367  144.3745  163.5956 C.ar    1  UNL1        0.1193
      9 C         138.4835  143.6230  164.6574 C.ar    1  UNL1        0.1020
     10 N         139.3421  142.4513  164.2835 N.ar    1  UNL1       -0.2885
     11 H         139.3821  141.5932  160.1053 H       1  UNL1        0.1438
     12 H         138.3284  142.8555  159.6537 H       1  UNL1        0.1438
     13 C         141.3074  142.3531  169.7852 C.3     1  UNL1        0.0056
     14 C         140.3888  141.3339  169.1792 C.3     1  UNL1        0.0325
     15 C         139.4153  140.1972  169.0777 C.3     1  UNL1        0.0052
     16 C         138.9189  139.7527  167.7338 C.3     1  UNL1        0.0008
     17 C         139.3958  140.4449  166.4915 C.3     1  UNL1        0.0071
     18 C         140.3693  141.5816  166.5930 C.3     1  UNL1        0.0514
     19 C         141.2802  142.6986  166.1777 C.3     1  UNL1        0.0075
     20 C         140.8658  142.0261  167.9368 C.3     1  UNL1        0.0123
     21 C         140.2309  140.9956  170.6320 C.2     1  UNL1        0.0497
     22 O         140.6403  141.9861  171.6814 O.co2   1  UNL1       -0.5492
     23 O         139.6635  139.6669  171.0354 O.co2   1  UNL1       -0.5492
     24 C         140.7625  140.1022  161.5395 C.ar    1  UNL1        0.0192
     25 C         139.8278  139.0922  160.9426 C.ar    1  UNL1        0.0017
     26 C         140.2204  138.3494  159.6999 C.ar    1  UNL1        0.0046
     27 C         141.5477  138.6165  159.0543 C.ar    1  UNL1        0.0537
     28 C         142.4823  139.6265  159.6512 C.ar    1  UNL1        0.0046
     29 C         142.0897  140.3693  160.8938 C.ar    1  UNL1        0.0017
     30 C         141.9403  137.8737  157.8117 C.2     1  UNL1        0.2505
     31 O         143.3384  137.9872  157.2802 O.2     1  UNL1       -0.2698
     32 N         140.9348  137.0174  157.1006 N.am    1  UNL1       -0.2658
     33 H         140.0172  136.9429  157.4495 H       1  UNL1        0.1566
     34 C         141.3274  136.2745  155.8580 C.ar    1  UNL1        0.1343
     35 C         142.0814  134.9821  155.9634 C.ar    1  UNL1        0.0383
     36 C         142.4740  134.2393  154.7207 C.ar    1  UNL1        0.0757
     37 C         142.1125  134.7889  153.3726 C.ar    1  UNL1        0.0246
     38 C         141.3584  136.0813  153.2673 C.ar    1  UNL1        0.1003
     39 N         140.9659  136.8241  154.5099 N.ar    1  UNL1       -0.2290
     40 C         143.2280  132.9469  154.8262 C.3     1  UNL1        0.4187
     41 F         143.9821  131.6545  154.9317 F       1  UNL1       -0.1659
     42 F         142.5367  132.4430  153.5940 F       1  UNL1       -0.1659
     43 F         143.9193  133.4509  156.0584 F       1  UNL1       -0.1659
@<TRIPOS>UNITY_ATOM_ATTR
22 1
charge -1
@<TRIPOS>BOND
     1    14    13    1
     2    14    21    1
     3    21    22   ar
     4    21    23   ar
     5    14    15    1
     6    15    16    1
     7    16    17    1
     8    17    18    1
     9    18    19    1
    10    18     1    1
    11     1     2   ar
    12     2     3   ar
    13     3    24    1
    14    24    25   ar
    15    25    26   ar
    16    26    27   ar
    17    27    30    1
    18    30    31    2
    19    30    32   am
    20    32    34    1
    21    34    35   ar
    22    35    36   ar
    23    36    40    1
    24    40    41    1
    25    40    42    1
    26    40    43    1
    27    36    37   ar
    28    37    38   ar
    29    38    39   ar
    30    27    28   ar
    31    28    29   ar
    32     3     4   ar
    33     4     5   ar
    34     5     6    1
    35     5     7   ar
    36     7     8   ar
    37     8     9   ar
    38     9    10   ar
    39    18    20    1
    40    20    14    1
    41    10     1   ar
    42    29    24   ar
    43    10     4   ar
    44    39    34   ar
    45    32    33    1
    46     6    11    1
    47     6    12    1
@<TRIPOS>MOLECULE
*****
 43 47 0 0 0
SMALL
GASTEIGER

@<TRIPOS>ATOM
      1 C         141.1477  141.0084  165.5297 C.ar    1  UNL1        0.1235
      2 N         142.0355  141.4394  164.4001 N.ar    1  UNL1       -0.2305
      3 C         141.7745  140.5331  163.2337 C.ar    1  UNL1        0.1013
      4 C         140.7253  139.5420  163.6425 C.ar    1  UNL1        0.1141
      5 C         140.0727  138.4101  162.9059 C.ar    1  UNL1        0.1432
      6 N         140.4600  138.1163  161.4868 N.pl3   1  UNL1       -0.3414
      7 N         139.0326  137.5719  163.5883 N.ar    1  UNL1       -0.2265
      8 C         138.6453  137.8656  165.0073 C.ar    1  UNL1        0.1193
      9 C         139.2979  138.9976  165.7439 C.ar    1  UNL1        0.1020
     10 N         140.3379  139.8358  165.0615 N.ar    1  UNL1       -0.2885
     11 H         141.1426  138.6664  161.0389 H       1  UNL1        0.1438
     12 H         140.0316  137.3733  161.0034 H       1  UNL1        0.1438
     13 C         140.3565  143.5819  169.6032 C.3     1  UNL1        0.0056
     14 C         141.2758  142.4222  169.3587 C.3     1  UNL1        0.0325
     15 C         142.2950  141.3526  169.6175 C.3     1  UNL1        0.0052
     16 C         142.7074  140.4263  168.5121 C.3     1  UNL1        0.0008
     17 C         142.1006  140.5696  167.1478 C.3     1  UNL1        0.0071
     18 C         141.0813  141.6393  166.8890 C.3     1  UNL1        0.0514
     19 C         140.0851  142.4899  166.1581 C.3     1  UNL1        0.0075
     20 C         140.6690  142.5656  167.9944 C.3     1  UNL1        0.0123
     21 C         141.5634  142.6816  170.8079 C.2     1  UNL1        0.0497
     22 O         140.6373  142.1526  171.8626 O.co2   1  UNL1       -0.5492
     23 O         142.7771  143.4699  171.2022 O.co2   1  UNL1       -0.5492
     24 C         142.4448  140.6052  161.8938 C.ar    1  UNL1        0.0192
     25 C         142.0606  141.6793  160.9197 C.ar    1  UNL1        0.0017
     26 C         142.7310  141.7514  159.5798 C.ar    1  UNL1        0.0046
     27 C         143.7856  140.7494  159.2139 C.ar    1  UNL1        0.0537
     28 C         144.1698  139.6754  160.1879 C.ar    1  UNL1        0.0046
     29 C         143.4994  139.6033  161.5279 C.ar    1  UNL1        0.0017
     30 C         144.4560  140.8215  157.8740 C.2     1  UNL1        0.2505
     31 O         144.4081  139.6432  156.9470 O.2     1  UNL1       -0.2698
     32 N         145.1742  142.0720  157.4611 N.am    1  UNL1       -0.2658
     33 H         145.2056  142.8453  158.0695 H       1  UNL1        0.1566
     34 C         145.8446  142.1441  156.1211 C.ar    1  UNL1        0.1343
     35 C         147.3264  141.9386  156.0118 C.ar    1  UNL1        0.0383
     36 C         147.9968  142.0108  154.6718 C.ar    1  UNL1        0.0757
     37 C         147.1853  142.2885  153.4412 C.ar    1  UNL1        0.0246
     38 C         145.7035  142.4941  153.5506 C.ar    1  UNL1        0.1003
     39 N         145.0331  142.4219  154.8906 N.ar    1  UNL1       -0.2290
     40 C         149.4785  141.8052  154.5626 C.3     1  UNL1        0.4187
     41 F         150.9605  141.5996  154.4534 F       1  UNL1       -0.1659
     42 F         149.3504  141.6724  153.0740 F       1  UNL1       -0.1659
     43 F         149.6068  141.9381  156.0512 F       1  UNL1       -0.1659
@<TRIPOS>UNITY_ATOM_ATTR
22 1
charge -1
@<TRIPOS>BOND
     1    14    13    1
     2    14    21    1
     3    21    22   ar
     4    21    23   ar
     5    14    15    1
     6    15    16    1
     7    16    17    1
     8    17    18    1
     9    18    19    1
    10    18     1    1
    11     1     2   ar
    12     2     3   ar
    13     3    24    1
    14    24    25   ar
    15    25    26   ar
    16    26    27   ar
    17    27    30    1
    18    30    31    2
    19    30    32   am
    20    32    34    1
    21    34    35   ar
    22    35    36   ar
    23    36    40    1
    24    40    41    1
    25    40    42    1
    26    40    43    1
    27    36    37   ar
    28    37    38   ar
    29    38    39   ar
    30    27    28   ar
    31    28    29   ar
    32     3     4   ar
    33     4     5   ar
    34     5     6    1
    35     5     7   ar
    36     7     8   ar
    37     8     9   ar
    38     9    10   ar
    39    18    20    1
    40    20    14    1
    41    10     1   ar
    42    29    24   ar
    43    10     4   ar
    44    39    34   ar
    45    32    33    1
    46     6    11    1
    47     6    12    1
@<TRIPOS>MOLECULE
*****
 43 47 0 0 0
SMALL
GASTEIGER

@<TRIPOS>ATOM
      1 C         140.6491  142.0486  164.9362 C.ar    1  UNL1        0.1235
      2 N         141.7296  141.5826  164.0060 N.ar    1  UNL1       -0.2305
      3 C         141.4353  142.1319  162.6416 C.ar    1  UNL1        0.1013
      4 C         140.1729  142.9374  162.7285 C.ar    1  UNL1        0.1141
      5 C         139.4031  143.7110  161.6995 C.ar    1  UNL1        0.1432
      6 N         139.8891  143.7625  160.2813 N.pl3   1  UNL1       -0.3414
      7 N         138.1474  144.4332  162.0887 N.ar    1  UNL1       -0.2265
      8 C         137.6614  144.3817  163.5069 C.ar    1  UNL1        0.1193
      9 C         138.4312  143.6081  164.5358 C.ar    1  UNL1        0.1020
     10 N         139.6870  142.8859  164.1466 N.ar    1  UNL1       -0.2885
     11 H         140.7133  143.2885  160.0259 H       1  UNL1        0.1438
     12 H         139.3838  144.2703  159.6060 H       1  UNL1        0.1438
     13 C         140.8666  141.6658  169.7991 C.3     1  UNL1        0.0056
     14 C         140.0885  140.8590  168.8023 C.3     1  UNL1        0.0325
     15 C         139.1640  139.8168  168.2465 C.3     1  UNL1        0.0052
     16 C         138.9315  139.7326  166.7670 C.3     1  UNL1        0.0008
     17 C         139.6236  140.6905  165.8433 C.3     1  UNL1        0.0071
     18 C         140.5483  141.7328  166.3991 C.3     1  UNL1        0.0514
     19 C         141.5078  142.8847  166.4469 C.3     1  UNL1        0.0075
     20 C         140.7807  141.8170  167.8786 C.3     1  UNL1        0.0123
     21 C         139.6666  140.1812  170.0722 C.2     1  UNL1        0.0497
     22 O         138.2125  139.9285  170.3400 O.co2   1  UNL1       -0.5492
     23 O         140.6988  139.7561  171.0742 O.co2   1  UNL1       -0.5492
     24 C         142.2589  141.9140  161.4070 C.ar    1  UNL1        0.0192
     25 C         141.9144  140.8007  160.4624 C.ar    1  UNL1        0.0017
     26 C         142.7379  140.5827  159.2278 C.ar    1  UNL1        0.0046
     27 C         143.9059  141.4781  158.9376 C.ar    1  UNL1        0.0537
     28 C         144.2504  142.5913  159.8821 C.ar    1  UNL1        0.0046
     29 C         143.4268  142.8092  161.1167 C.ar    1  UNL1        0.0017
     30 C         144.7294  141.2601  157.7030 C.2     1  UNL1        0.2505
     31 O         144.8497  139.8856  157.1146 O.2     1  UNL1       -0.2698
     32 N         145.4327  142.4168  157.0569 N.am    1  UNL1       -0.2658
     33 H         145.3538  143.3189  157.4431 H       1  UNL1        0.1566
     34 C         146.2563  142.1989  155.8222 C.ar    1  UNL1        0.1343
     35 C         147.7488  142.0902  155.9257 C.ar    1  UNL1        0.0383
     36 C         148.5723  141.8724  154.6910 C.ar    1  UNL1        0.0757
     37 C         147.9033  141.7633  153.3529 C.ar    1  UNL1        0.0246
     38 C         146.4108  141.8721  153.2494 C.ar    1  UNL1        0.1003
     39 N         145.5873  142.0899  154.4841 N.ar    1  UNL1       -0.2290
     40 C         150.0647  141.7636  154.7945 C.3     1  UNL1        0.4187
     41 F         151.5572  141.6549  154.8981 F       1  UNL1       -0.1659
     42 F         150.1386  141.3945  153.3425 F       1  UNL1       -0.1659
     43 F         149.9909  142.1327  156.2466 F       1  UNL1       -0.1659
@<TRIPOS>UNITY_ATOM_ATTR
22 1
charge -1
@<TRIPOS>BOND
     1    14    13    1
     2    14    21    1
     3    21    22   ar
     4    21    23   ar
     5    14    15    1
     6    15    16    1
     7    16    17    1
     8    17    18    1
     9    18    19    1
    10    18     1    1
    11     1     2   ar
    12     2     3   ar
    13     3    24    1
    14    24    25   ar
    15    25    26   ar
    16    26    27   ar
    17    27    30    1
    18    30    31    2
    19    30    32   am
    20    32    34    1
    21    34    35   ar
    22    35    36   ar
    23    36    40    1
    24    40    41    1
    25    40    42    1
    26    40    43    1
    27    36    37   ar
    28    37    38   ar
    29    38    39   ar
    30    27    28   ar
    31    28    29   ar
    32     3     4   ar
    33     4     5   ar
    34     5     6    1
    35     5     7   ar
    36     7     8   ar
    37     8     9   ar
    38     9    10   ar
    39    18    20    1
    40    20    14    1
    41    10     1   ar
    42    29    24   ar
    43    10     4   ar
    44    39    34   ar
    45    32    33    1
    46     6    11    1
    47     6    12    1
@<TRIPOS>MOLECULE
*****
 43 47 0 0 0
SMALL
GASTEIGER

@<TRIPOS>ATOM
      1 C         141.8318  140.3376  165.5619 C.ar    1  UNL1        0.1235
      2 N         142.6087  140.8289  164.3765 N.ar    1  UNL1       -0.2305
      3 C         142.0384  140.1831  163.1486 C.ar    1  UNL1        0.1013
      4 C         140.9090  139.2928  163.5751 C.ar    1  UNL1        0.1141
      5 C         139.9804  138.4075  162.7981 C.ar    1  UNL1        0.1432
      6 N         140.1081  138.3120  161.3066 N.pl3   1  UNL1       -0.3414
      7 N         138.9242  137.6177  163.5125 N.ar    1  UNL1       -0.2265
      8 C         138.7965  137.7132  165.0040 C.ar    1  UNL1        0.1193
      9 C         139.7251  138.5985  165.7811 C.ar    1  UNL1        0.1020
     10 N         140.7814  139.3883  165.0666 N.ar    1  UNL1       -0.2885
     11 H         140.8013  138.8304  160.8377 H       1  UNL1        0.1438
     12 H         139.4986  137.7309  160.7966 H       1  UNL1        0.1438
     13 C         143.1273  140.9468  170.2302 C.3     1  UNL1        0.0056
     14 C         142.1691  141.7327  169.3850 C.3     1  UNL1        0.0325
     15 C         141.1714  142.7803  168.9886 C.3     1  UNL1        0.0052
     16 C         140.6203  142.8014  167.5936 C.3     1  UNL1        0.0008
     17 C         141.0668  141.7750  166.5952 C.3     1  UNL1        0.0071
     18 C         142.0646  140.7273  166.9916 C.3     1  UNL1        0.0514
     19 C         142.9815  139.5444  166.8915 C.3     1  UNL1        0.0075
     20 C         142.6157  140.7062  168.3865 C.3     1  UNL1        0.0123
     21 C         142.0553  142.4863  170.6770 C.2     1  UNL1        0.0497
     22 O         141.0801  142.0363  171.7242 O.co2   1  UNL1       -0.5492
     23 O         142.9166  143.6897  170.9217 O.co2   1  UNL1       -0.5492
     24 C         142.5139  140.3911  161.7413 C.ar    1  UNL1        0.0192
     25 C         141.9432  141.5045  160.9136 C.ar    1  UNL1        0.0017
     26 C         142.4187  141.7125  159.5062 C.ar    1  UNL1        0.0046
     27 C         143.4648  140.8073  158.9265 C.ar    1  UNL1        0.0537
     28 C         144.0355  139.6940  159.7542 C.ar    1  UNL1        0.0046
     29 C         143.5600  139.4860  161.1615 C.ar    1  UNL1        0.0017
     30 C         143.9403  141.0153  157.5192 C.2     1  UNL1        0.2505
     31 O         143.1981  141.9460  156.6066 O.2     1  UNL1       -0.2698
     32 N         145.1580  140.2925  157.0245 N.am    1  UNL1       -0.2658
     33 H         145.6451  139.6816  157.6235 H       1  UNL1        0.1566
     34 C         145.6336  140.5005  155.6171 C.ar    1  UNL1        0.1343
     35 C         146.6687  141.5451  155.3218 C.ar    1  UNL1        0.0383
     36 C         147.1443  141.7530  153.9145 C.ar    1  UNL1        0.0757
     37 C         146.5847  140.9163  152.8024 C.ar    1  UNL1        0.0246
     38 C         145.5495  139.8716  153.0977 C.ar    1  UNL1        0.1003
     39 N         145.0740  139.6637  154.5051 N.ar    1  UNL1       -0.2290
     40 C         148.1794  142.7976  153.6192 C.3     1  UNL1        0.4187
     41 F         149.2146  143.8424  153.3240 F       1  UNL1       -0.1659
     42 F         149.0008  142.3108  154.7761 F       1  UNL1       -0.1659
     43 F         147.3580  143.2846  152.4623 F       1  UNL1       -0.1659
@<TRIPOS>UNITY_ATOM_ATTR
22 1
charge -1
@<TRIPOS>BOND
     1    14    13    1
     2    14    21    1
     3    21    22   ar
     4    21    23   ar
     5    14    15    1
     6    15    16    1
     7    16    17    1
     8    17    18    1
     9    18    19    1
    10    18     1    1
    11     1     2   ar
    12     2     3   ar
    13     3    24    1
    14    24    25   ar
    15    25    26   ar
    16    26    27   ar
    17    27    30    1
    18    30    31    2
    19    30    32   am
    20    32    34    1
    21    34    35   ar
    22    35    36   ar
    23    36    40    1
    24    40    41    1
    25    40    42    1
    26    40    43    1
    27    36    37   ar
    28    37    38   ar
    29    38    39   ar
    30    27    28   ar
    31    28    29   ar
    32     3     4   ar
    33     4     5   ar
    34     5     6    1
    35     5     7   ar
    36     7     8   ar
    37     8     9   ar
    38     9    10   ar
    39    18    20    1
    40    20    14    1
    41    10     1   ar
    42    29    24   ar
    43    10     4   ar
    44    39    34   ar
    45    32    33    1
    46     6    11    1
    47     6    12    1
@<TRIPOS>MOLECULE
*****
 43 47 0 0 0
SMALL
GASTEIGER

@<TRIPOS>ATOM
      1 C         140.7429  142.3638  164.1932 C.ar    1  UNL1        0.1235
      2 N         140.8481  141.1125  163.3727 N.ar    1  UNL1       -0.2305
      3 C         140.5834  141.4735  161.9410 C.ar    1  UNL1        0.1013
      4 C         140.3146  142.9478  161.8767 C.ar    1  UNL1        0.1141
      5 C         139.9929  143.8604  160.7306 C.ar    1  UNL1        0.1432
      6 N         139.8943  143.3102  159.3386 N.pl3   1  UNL1       -0.3414
      7 N         139.7698  145.3231  160.9764 N.ar    1  UNL1       -0.2265
      8 C         139.8683  145.8734  162.3683 C.ar    1  UNL1        0.1193
      9 C         140.1901  144.9608  163.5145 C.ar    1  UNL1        0.1020
     10 N         140.4132  143.4981  163.2687 N.ar    1  UNL1       -0.2885
     11 H         140.0408  142.3501  159.1773 H       1  UNL1        0.1438
     12 H         139.6832  143.9091  158.5864 H       1  UNL1        0.1438
     13 C         140.5154  142.7338  169.0566 C.3     1  UNL1        0.0056
     14 C         141.7066  142.6060  168.1541 C.3     1  UNL1        0.0325
     15 C         143.1367  142.4999  167.7140 C.3     1  UNL1        0.0052
     16 C         143.4653  142.3755  166.2558 C.3     1  UNL1        0.0008
     17 C         142.3640  142.3572  165.2376 C.3     1  UNL1        0.0071
     18 C         140.9339  142.4633  165.6777 C.3     1  UNL1        0.0514
     19 C         139.4375  142.5348  165.6022 C.3     1  UNL1        0.0075
     20 C         140.6052  142.5877  167.1359 C.3     1  UNL1        0.0123
     21 C         142.3943  142.6687  169.4857 C.2     1  UNL1        0.0497
     22 O         143.8924  142.6977  169.5555 O.co2   1  UNL1       -0.5492
     23 O         141.5838  142.7023  170.7475 O.co2   1  UNL1       -0.5492
     24 C         140.5868  140.5264  160.7778 C.ar    1  UNL1        0.0192
     25 C         139.3257  139.8149  160.3862 C.ar    1  UNL1        0.0017
     26 C         139.3291  138.8678  159.2230 C.ar    1  UNL1        0.0046
     27 C         140.5936  138.6322  158.4514 C.ar    1  UNL1        0.0537
     28 C         141.8547  139.3438  158.8429 C.ar    1  UNL1        0.0046
     29 C         141.8513  140.2909  160.0061 C.ar    1  UNL1        0.0017
     30 C         140.5971  137.6852  157.2882 C.2     1  UNL1        0.2505
     31 O         139.3138  137.3573  156.5841 O.2     1  UNL1       -0.2698
     32 N         141.8839  137.0660  156.8291 N.am    1  UNL1       -0.2658
     33 H         142.7261  137.2812  157.2912 H       1  UNL1        0.1566
     34 C         141.8874  136.1189  155.6658 C.ar    1  UNL1        0.1343
     35 C         142.0082  134.6424  155.9011 C.ar    1  UNL1        0.0383
     36 C         142.0118  133.6954  154.7378 C.ar    1  UNL1        0.0757
     37 C         141.8945  134.2249  153.3393 C.ar    1  UNL1        0.0246
     38 C         141.7737  135.7014  153.1041 C.ar    1  UNL1        0.1003
     39 N         141.7701  136.6484  154.2673 N.ar    1  UNL1       -0.2290
     40 C         142.1326  132.2190  154.9732 C.3     1  UNL1        0.4187
     41 F         142.2535  130.7424  155.2086 F       1  UNL1       -0.1659
     42 F         140.6460  132.1254  155.1500 F       1  UNL1       -0.1659
     43 F         143.6192  132.3124  154.7964 F       1  UNL1       -0.1659
@<TRIPOS>UNITY_ATOM_ATTR
22 1
charge -1
@<TRIPOS>BOND
     1    14    13    1
     2    14    21    1
     3    21    22   ar
     4    21    23   ar
     5    14    15    1
     6    15    16    1
     7    16    17    1
     8    17    18    1
     9    18    19    1
    10    18     1    1
    11     1     2   ar
    12     2     3   ar
    13     3    24    1
    14    24    25   ar
    15    25    26   ar
    16    26    27   ar
    17    27    30    1
    18    30    31    2
    19    30    32   am
    20    32    34    1
    21    34    35   ar
    22    35    36   ar
    23    36    40    1
    24    40    41    1
    25    40    42    1
    26    40    43    1
    27    36    37   ar
    28    37    38   ar
    29    38    39   ar
    30    27    28   ar
    31    28    29   ar
    32     3     4   ar
    33     4     5   ar
    34     5     6    1
    35     5     7   ar
    36     7     8   ar
    37     8     9   ar
    38     9    10   ar
    39    18    20    1
    40    20    14    1
    41    10     1   ar
    42    29    24   ar
    43    10     4   ar
    44    39    34   ar
    45    32    33    1
    46     6    11    1
    47     6    12    1
@<TRIPOS>MOLECULE
*****
 43 47 0 0 0
SMALL
GASTEIGER

@<TRIPOS>ATOM
      1 C         141.5751  141.0622  165.4083 C.ar    1  UNL1        0.1235
      2 N         141.1064  140.1401  164.3220 N.ar    1  UNL1       -0.2305
      3 C         141.8276  140.5074  163.0591 C.ar    1  UNL1        0.1013
      4 C         142.7420  141.6565  163.3649 C.ar    1  UNL1        0.1141
      5 C         143.6966  142.4348  162.5088 C.ar    1  UNL1        0.1432
      6 N         143.8527  142.0919  161.0569 N.pl3   1  UNL1       -0.3414
      7 N         144.4951  143.5561  163.1047 N.ar    1  UNL1       -0.2265
      8 C         144.3391  143.8990  164.5566 C.ar    1  UNL1        0.1193
      9 C         143.3845  143.1206  165.4127 C.ar    1  UNL1        0.1020
     10 N         142.5859  141.9994  164.8168 N.ar    1  UNL1       -0.2885
     11 H         143.3286  141.3560  160.6658 H       1  UNL1        0.1438
     12 H         144.4792  142.6028  160.4951 H       1  UNL1        0.1438
     13 C         139.5023  141.5963  169.7970 C.3     1  UNL1        0.0056
     14 C         140.6434  140.7215  169.3697 C.3     1  UNL1        0.0325
     15 C         141.7589  139.7217  169.4474 C.3     1  UNL1        0.0052
     16 C         142.5519  139.3858  168.2192 C.3     1  UNL1        0.0008
     17 C         142.2294  140.0496  166.9134 C.3     1  UNL1        0.0071
     18 C         141.1138  141.0494  166.8356 C.3     1  UNL1        0.0514
     19 C         140.1585  142.0537  166.2622 C.3     1  UNL1        0.0075
     20 C         140.3209  141.3854  168.0638 C.3     1  UNL1        0.0123
     21 C         140.5697  140.3615  170.8239 C.2     1  UNL1        0.0497
     22 O         139.5316  139.3912  171.3046 O.co2   1  UNL1       -0.5492
     23 O         141.5339  140.9717  171.7975 O.co2   1  UNL1       -0.5492
     24 C         141.6633  139.8424  161.7247 C.ar    1  UNL1        0.0192
     25 C         140.6551  140.3657  160.7449 C.ar    1  UNL1        0.0017
     26 C         140.4907  139.7007  159.4105 C.ar    1  UNL1        0.0046
     27 C         141.3345  138.5124  159.0557 C.ar    1  UNL1        0.0537
     28 C         142.3427  137.9891  160.0354 C.ar    1  UNL1        0.0046
     29 C         142.5070  138.6541  161.3698 C.ar    1  UNL1        0.0017
     30 C         141.1702  137.8474  157.7213 C.2     1  UNL1        0.2505
     31 O         139.8615  137.9386  156.9939 O.2     1  UNL1       -0.2698
     32 N         142.3146  137.0911  157.1143 N.am    1  UNL1       -0.2658
     33 H         143.1735  137.0313  157.5917 H       1  UNL1        0.1566
     34 C         142.1503  136.4261  155.7798 C.ar    1  UNL1        0.1343
     35 C         141.9711  134.9390  155.6998 C.ar    1  UNL1        0.0383
     36 C         141.8068  134.2740  154.3653 C.ar    1  UNL1        0.0757
     37 C         141.8219  135.0961  153.1108 C.ar    1  UNL1        0.0246
     38 C         142.0012  136.5832  153.1907 C.ar    1  UNL1        0.1003
     39 N         142.1654  137.2482  154.5252 N.ar    1  UNL1       -0.2290
     40 C         141.6276  132.7870  154.2855 C.3     1  UNL1        0.4187
     41 F         141.4483  131.2998  154.2057 F       1  UNL1       -0.1659
     42 F         141.9996  132.8200  152.8327 F       1  UNL1       -0.1659
     43 F         141.2555  132.7538  155.7383 F       1  UNL1       -0.1659
@<TRIPOS>UNITY_ATOM_ATTR
22 1
charge -1
@<TRIPOS>BOND
     1    14    13    1
     2    14    21    1
     3    21    22   ar
     4    21    23   ar
     5    14    15    1
     6    15    16    1
     7    16    17    1
     8    17    18    1
     9    18    19    1
    10    18     1    1
    11     1     2   ar
    12     2     3   ar
    13     3    24    1
    14    24    25   ar
    15    25    26   ar
    16    26    27   ar
    17    27    30    1
    18    30    31    2
    19    30    32   am
    20    32    34    1
    21    34    35   ar
    22    35    36   ar
    23    36    40    1
    24    40    41    1
    25    40    42    1
    26    40    43    1
    27    36    37   ar
    28    37    38   ar
    29    38    39   ar
    30    27    28   ar
    31    28    29   ar
    32     3     4   ar
    33     4     5   ar
    34     5     6    1
    35     5     7   ar
    36     7     8   ar
    37     8     9   ar
    38     9    10   ar
    39    18    20    1
    40    20    14    1
    41    10     1   ar
    42    29    24   ar
    43    10     4   ar
    44    39    34   ar
    45    32    33    1
    46     6    11    1
    47     6    12    1
@<TRIPOS>MOLECULE
*****
 43 47 0 0 0
SMALL
GASTEIGER

@<TRIPOS>ATOM
      1 C         140.3674  140.6171  165.4047 C.ar    1  UNL1        0.1235
      2 N         139.4140  140.9871  164.3074 N.ar    1  UNL1       -0.2305
      3 C         140.0741  140.6786  162.9963 C.ar    1  UNL1        0.1013
      4 C         141.4354  140.1180  163.2832 C.ar    1  UNL1        0.1141
      5 C         142.5334  139.6372  162.3814 C.ar    1  UNL1        0.1432
      6 N         142.3521  139.6753  160.8929 N.pl3   1  UNL1       -0.3414
      7 N         143.8127  139.1184  162.9682 N.ar    1  UNL1       -0.2265
      8 C         143.9939  139.0804  164.4567 C.ar    1  UNL1        0.1193
      9 C         142.8960  139.5611  165.3585 C.ar    1  UNL1        0.1020
     10 N         141.6167  140.0800  164.7717 N.ar    1  UNL1       -0.2885
     11 H         141.5125  140.0158  160.5078 H       1  UNL1        0.1438
     12 H         143.0728  139.3597  160.3010 H       1  UNL1        0.1438
     13 C         139.1000  140.3611  170.1132 C.3     1  UNL1        0.0056
     14 C         139.9315  141.3806  169.3926 C.3     1  UNL1        0.0325
     15 C         140.7775  142.5961  169.1544 C.3     1  UNL1        0.0052
     16 C         141.2926  142.8932  167.7773 C.3     1  UNL1        0.0008
     17 C         140.9618  141.9748  166.6384 C.3     1  UNL1        0.0071
     18 C         140.1157  140.7593  166.8766 C.3     1  UNL1        0.0514
     19 C         139.3570  139.4944  166.6036 C.3     1  UNL1        0.0075
     20 C         139.6005  140.4622  168.2537 C.3     1  UNL1        0.0123
     21 C         139.9736  141.9449  170.7817 C.2     1  UNL1        0.0497
     22 O         140.7037  141.2113  171.8674 O.co2   1  UNL1       -0.5492
     23 O         139.2857  143.2429  171.0852 O.co2   1  UNL1       -0.5492
     24 C         139.4775  140.8931  161.6368 C.ar    1  UNL1        0.0192
     25 C         139.6479  142.2120  160.9426 C.ar    1  UNL1        0.0017
     26 C         139.0513  142.4265  159.5831 C.ar    1  UNL1        0.0046
     27 C         138.2845  141.3223  158.9178 C.ar    1  UNL1        0.0537
     28 C         138.1142  140.0035  159.6120 C.ar    1  UNL1        0.0046
     29 C         138.7107  139.7890  160.9715 C.ar    1  UNL1        0.0017
     30 C         137.6880  141.5368  157.5584 C.2     1  UNL1        0.2505
     31 O         137.8552  142.8567  156.8657 O.2     1  UNL1       -0.2698
     32 N         136.9242  140.4313  156.8916 N.am    1  UNL1       -0.2658
     33 H         136.8145  139.5650  157.3463 H       1  UNL1        0.1566
     34 C         136.3277  140.6457  155.5321 C.ar    1  UNL1        0.1343
     35 C         134.8948  141.0692  155.4001 C.ar    1  UNL1        0.0383
     36 C         134.2983  141.2836  154.0406 C.ar    1  UNL1        0.0757
     37 C         135.1347  141.0745  152.8131 C.ar    1  UNL1        0.0246
     38 C         136.5676  140.6510  152.9452 C.ar    1  UNL1        0.1003
     39 N         137.1641  140.4366  154.3047 N.ar    1  UNL1       -0.2290
     40 C         132.8654  141.7072  153.9086 C.3     1  UNL1        0.4187
     41 F         131.4325  142.1307  153.7766 F       1  UNL1       -0.1659
     42 F         132.6220  141.3299  155.3399 F       1  UNL1       -0.1659
     43 F         133.1087  142.0844  152.4773 F       1  UNL1       -0.1659
@<TRIPOS>UNITY_ATOM_ATTR
22 1
charge -1
@<TRIPOS>BOND
     1    14    13    1
     2    14    21    1
     3    21    22   ar
     4    21    23   ar
     5    14    15    1
     6    15    16    1
     7    16    17    1
     8    17    18    1
     9    18    19    1
    10    18     1    1
    11     1     2   ar
    12     2     3   ar
    13     3    24    1
    14    24    25   ar
    15    25    26   ar
    16    26    27   ar
    17    27    30    1
    18    30    31    2
    19    30    32   am
    20    32    34    1
    21    34    35   ar
    22    35    36   ar
    23    36    40    1
    24    40    41    1
    25    40    42    1
    26    40    43    1
    27    36    37   ar
    28    37    38   ar
    29    38    39   ar
    30    27    28   ar
    31    28    29   ar
    32     3     4   ar
    33     4     5   ar
    34     5     6    1
    35     5     7   ar
    36     7     8   ar
    37     8     9   ar
    38     9    10   ar
    39    18    20    1
    40    20    14    1
    41    10     1   ar
    42    29    24   ar
    43    10     4   ar
    44    39    34   ar
    45    32    33    1
    46     6    11    1
    47     6    12    1
@<TRIPOS>MOLECULE
*****
 43 47 0 0 0
SMALL
GASTEIGER

@<TRIPOS>ATOM
      1 C         142.4305  140.6635  164.8803 C.ar    1  UNL1        0.1235
      2 N         141.2027  140.6659  164.0187 N.ar    1  UNL1       -0.2305
      3 C         141.6076  141.0829  162.6359 C.ar    1  UNL1        0.1013
      4 C         143.0857  141.3382  162.6429 C.ar    1  UNL1        0.1141
      5 C         144.0342  141.7733  161.5654 C.ar    1  UNL1        0.1432
      6 N         143.5257  142.0325  160.1783 N.pl3   1  UNL1       -0.3414
      7 N         145.4913  141.9491  161.8751 N.ar    1  UNL1       -0.2265
      8 C         145.9999  141.6899  163.2622 C.ar    1  UNL1        0.1193
      9 C         145.0514  141.2548  164.3397 C.ar    1  UNL1        0.1020
     10 N         143.5943  141.0790  164.0300 N.ar    1  UNL1       -0.2885
     11 H         142.5693  141.9171  159.9750 H       1  UNL1        0.1438
     12 H         144.1482  142.3180  159.4711 H       1  UNL1        0.1438
     13 C         142.5527  138.7013  169.3499 C.3     1  UNL1        0.0056
     14 C         142.6059  140.1393  168.9264 C.3     1  UNL1        0.0325
     15 C         142.6880  141.6341  169.0199 C.3     1  UNL1        0.0052
     16 C         142.6685  142.4659  167.7717 C.3     1  UNL1        0.0008
     17 C         142.5670  141.8029  166.4301 C.3     1  UNL1        0.0071
     18 C         142.4850  140.3080  166.3365 C.3     1  UNL1        0.0514
     19 C         142.3840  138.9366  165.7373 C.3     1  UNL1        0.0075
     20 C         142.5045  139.4762  167.5847 C.3     1  UNL1        0.0123
     21 C         142.6889  140.3030  170.4151 C.2     1  UNL1        0.0497
     22 O         143.7023  139.5238  171.1999 O.co2   1  UNL1       -0.5492
     23 O         141.7586  141.2459  171.1190 O.co2   1  UNL1       -0.5492
     24 C         140.6948  141.2204  161.4536 C.ar    1  UNL1        0.0192
     25 C         139.9487  142.5019  161.2272 C.ar    1  UNL1        0.0017
     26 C         139.0358  142.6395  160.0449 C.ar    1  UNL1        0.0046
     27 C         138.8690  141.4956  159.0890 C.ar    1  UNL1        0.0537
     28 C         139.6151  140.2142  159.3155 C.ar    1  UNL1        0.0046
     29 C         140.5279  140.0766  160.4978 C.ar    1  UNL1        0.0017
     30 C         137.9561  141.6331  157.9068 C.2     1  UNL1        0.2505
     31 O         137.7501  142.9758  157.2705 O.2     1  UNL1       -0.2698
     32 N         137.2494  140.4280  157.3608 N.am    1  UNL1       -0.2658
     33 H         137.3846  139.5468  157.7785 H       1  UNL1        0.1566
     34 C         136.3365  140.5655  156.1785 C.ar    1  UNL1        0.1343
     35 C         134.8672  140.7842  156.3868 C.ar    1  UNL1        0.0383
     36 C         133.9544  140.9216  155.2044 C.ar    1  UNL1        0.0757
     37 C         134.5109  140.8403  153.8139 C.ar    1  UNL1        0.0246
     38 C         135.9801  140.6217  153.6056 C.ar    1  UNL1        0.1003
     39 N         136.8929  140.4842  154.7880 N.ar    1  UNL1       -0.2290
     40 C         132.4852  141.1403  155.4128 C.3     1  UNL1        0.4187
     41 F         131.0158  141.3590  155.6211 F       1  UNL1       -0.1659
     42 F         132.6080  140.6281  156.8172 F       1  UNL1       -0.1659
     43 F         132.3622  141.6526  154.0083 F       1  UNL1       -0.1659
@<TRIPOS>UNITY_ATOM_ATTR
22 1
charge -1
@<TRIPOS>BOND
     1    14    13    1
     2    14    21    1
     3    21    22   ar
     4    21    23   ar
     5    14    15    1
     6    15    16    1
     7    16    17    1
     8    17    18    1
     9    18    19    1
    10    18     1    1
    11     1     2   ar
    12     2     3   ar
    13     3    24    1
    14    24    25   ar
    15    25    26   ar
    16    26    27   ar
    17    27    30    1
    18    30    31    2
    19    30    32   am
    20    32    34    1
    21    34    35   ar
    22    35    36   ar
    23    36    40    1
    24    40    41    1
    25    40    42    1
    26    40    43    1
    27    36    37   ar
    28    37    38   ar
    29    38    39   ar
    30    27    28   ar
    31    28    29   ar
    32     3     4   ar
    33     4     5   ar
    34     5     6    1
    35     5     7   ar
    36     7     8   ar
    37     8     9   ar
    38     9    10   ar
    39    18    20    1
    40    20    14    1
    41    10     1   ar
    42    29    24   ar
    43    10     4   ar
    44    39    34   ar
    45    32    33    1
    46     6    11    1
    47     6    12    1
