@<TRIPOS>MOLECULE
*****
 45 50 0 0 0
SMALL
GASTEIGER

@<TRIPOS>ATOM
      1 C         140.3234  141.5611  162.7471 C.3     1  UNL1        0.0235
      2 C         141.0637  140.3002  162.4121 C.3     1  UNL1        0.0256
      3 C         141.2675  139.9084  160.9786 C.3     1  UNL1        0.0937
      4 N         140.7309  140.7775  159.8800 N.am    1  UNL1       -0.2792
      5 C         140.9346  140.3857  158.4465 C.2     1  UNL1        0.2330
      6 O         140.3981  141.2547  157.3479 O.2     1  UNL1       -0.2744
      7 C         139.9906  142.0383  160.2150 C.3     1  UNL1        0.0937
      8 C         139.7868  142.4301  161.6484 C.3     1  UNL1        0.0256
      9 C         139.6934  142.6517  163.5618 C.ar    1  UNL1       -0.0226
     10 C         138.4228  142.3875  164.3138 C.ar    1  UNL1       -0.0043
     11 C         137.7928  143.4781  165.1286 C.ar    1  UNL1       -0.0003
     12 C         138.4335  144.8329  165.1912 C.ar    1  UNL1       -0.0000
     13 C         139.7042  145.0971  164.4391 C.ar    1  UNL1       -0.0003
     14 C         140.3341  144.0064  163.6244 C.ar    1  UNL1       -0.0043
     15 C         141.6750  139.1248  158.1116 C.3     1  UNL1        0.1388
     16 C         140.3779  138.3721  158.0781 C.3     1  UNL1        0.0184
     17 C         142.9720  139.8776  158.1451 C.3     1  UNL1        0.0184
     18 C         142.4154  137.8640  157.7767 C.2     1  UNL1        0.2479
     19 O         143.1241  137.1011  158.8564 O.2     1  UNL1       -0.2731
     20 N         142.4470  137.3660  156.3621 N.am    1  UNL1       -0.1883
     21 H         141.9818  137.8667  155.6535 H       1  UNL1        0.1762
     22 S         143.1874  136.1053  156.0272 S.O2    1  UNL1        0.0578
     23 C         143.9277  134.8444  155.6922 C.3     1  UNL1        0.1997
     24 O         141.9447  135.3065  156.2874 O.2     1  UNL1       -0.1544
     25 O         144.4300  136.9041  155.7670 O.2     1  UNL1       -0.1544
     26 C         140.6412  141.0708  164.1285 C.3     1  UNL1        0.0215
     27 C         142.0509  141.1261  164.6383 C.3     1  UNL1        0.0723
     28 C         142.1688  141.0750  164.5482 C.3     1  UNL1        0.0893
     29 C         142.4304  142.5134  164.2123 C.3     1  UNL1        0.0386
     30 C         143.5506  142.8747  163.2824 C.3     1  UNL1        0.0594
     31 C         144.7224  142.7695  162.3520 C.3     1  UNL1        0.0174
     32 C         145.0672  141.3173  162.2030 C.3     1  UNL1        0.0174
     33 C         144.1084  140.5249  163.0413 C.3     1  UNL1        0.0594
     34 C         143.0275  139.9981  163.9542 C.3     1  UNL1        0.0386
     35 N         143.1710  141.4874  163.7085 N.3     1  UNL1       -0.2751
     36 C         141.4022  142.7641  166.8405 C.3     1  UNL1        0.0718
     37 C         140.5944  141.5126  166.6636 C.ar    1  UNL1        0.1207
     38 N         139.4511  140.7827  167.3038 N.ar    1  UNL1       -0.2309
     39 C         139.1986  139.5327  166.5140 C.ar    1  UNL1        0.0983
     40 C         138.1973  138.4278  166.6766 C.ar    1  UNL1        0.0206
     41 C         138.1833  137.2802  165.7107 C.ar    1  UNL1        0.0016
     42 C         139.1706  137.2376  164.5823 C.ar    1  UNL1        0.0016
     43 C         140.1720  138.3425  164.4198 C.ar    1  UNL1        0.0188
     44 C         140.1860  139.4900  165.3856 C.ar    1  UNL1        0.0785
     45 N         141.0486  140.7137  165.4781 N.ar    1  UNL1       -0.3167
@<TRIPOS>BOND
     1    36    37    1
     2    37    38   ar
     3    38    39   ar
     4    39    40   ar
     5    40    41   ar
     6    41    42   ar
     7    42    43   ar
     8    43    44   ar
     9    44    45   ar
    10    45    28    1
    11    28    29    1
    12    29    30    1
    13    30    31    1
    14    31    32    1
    15    32    33    1
    16    33    34    1
    17    33    35    1
    18    35    27    1
    19    27    26    1
    20    26     1    1
    21     1     9    1
    22     9    10   ar
    23    10    11   ar
    24    11    12   ar
    25    12    13   ar
    26    13    14   ar
    27     1     2    1
    28     2     3    1
    29     3     4    1
    30     4     5   am
    31     5     6    2
    32     5    15    1
    33    15    16    1
    34    15    17    1
    35    15    18    1
    36    18    19    2
    37    18    20   am
    38    20    22    1
    39    22    23    1
    40    22    24    2
    41    22    25    2
    42     4     7    1
    43     7     8    1
    44    45    37   ar
    45    34    28    1
    46     8     1    1
    47    44    39   ar
    48    35    30    1
    49    14     9   ar
    50    20    21    1
@<TRIPOS>MOLECULE
*****
 45 50 0 0 0
SMALL
GASTEIGER

@<TRIPOS>ATOM
      1 C         140.8378  141.1984  161.0688 C.3     1  UNL1        0.0235
      2 C         140.2113  140.0194  160.3851 C.3     1  UNL1        0.0256
      3 C         140.9482  139.3098  159.2881 C.3     1  UNL1        0.0937
      4 N         142.3116  139.7791  158.8748 N.am    1  UNL1       -0.2792
      5 C         143.0485  139.0694  157.7778 C.2     1  UNL1        0.2330
      6 O         144.4119  139.5388  157.3645 O.2     1  UNL1       -0.2744
      7 C         142.9381  140.9581  159.5585 C.3     1  UNL1        0.0937
      8 C         142.2013  141.6677  160.6555 C.3     1  UNL1        0.0256
      9 C         141.0118  142.3538  162.0095 C.ar    1  UNL1       -0.0226
     10 C         141.2270  142.1037  163.4728 C.ar    1  UNL1       -0.0043
     11 C         141.4010  143.2592  164.4135 C.ar    1  UNL1       -0.0003
     12 C         141.3599  144.6645  163.8908 C.ar    1  UNL1       -0.0000
     13 C         141.1448  144.9146  162.4275 C.ar    1  UNL1       -0.0003
     14 C         140.9707  143.7591  161.4869 C.ar    1  UNL1       -0.0043
     15 C         142.4219  137.8905  157.0942 C.3     1  UNL1        0.1388
     16 C         142.9090  136.9940  158.1937 C.3     1  UNL1        0.0184
     17 C         141.9348  138.7870  155.9946 C.3     1  UNL1        0.0184
     18 C         141.7953  136.7115  156.4104 C.2     1  UNL1        0.2479
     19 O         140.3246  136.7103  156.1149 O.2     1  UNL1       -0.2731
     20 N         142.6393  135.5339  156.0222 N.am    1  UNL1       -0.1883
     21 H         143.6045  135.5347  156.2161 H       1  UNL1        0.1762
     22 S         142.0127  134.3549  155.3385 S.O2    1  UNL1        0.0578
     23 C         141.3862  133.1759  154.6548 C.3     1  UNL1        0.1997
     24 O         142.1167  133.5633  156.6083 O.2     1  UNL1       -0.1544
     25 O         141.9088  135.1466  154.0686 O.2     1  UNL1       -0.1544
     26 C         139.5349  141.1303  161.8088 C.3     1  UNL1        0.0215
     27 C         138.2525  141.4542  161.1011 C.3     1  UNL1        0.0723
     28 C         138.2205  141.3917  160.9607 C.3     1  UNL1        0.0893
     29 C         138.6914  142.6856  160.3655 C.3     1  UNL1        0.0386
     30 C         138.6828  142.8736  158.8773 C.3     1  UNL1        0.0594
     31 C         138.5051  142.6243  157.4089 C.3     1  UNL1        0.0174
     32 C         137.9563  141.2389  157.2370 C.3     1  UNL1        0.0174
     33 C         137.7949  140.6320  158.5992 C.3     1  UNL1        0.0594
     34 C         137.7409  140.2860  160.0678 C.3     1  UNL1        0.0386
     35 N         138.2439  141.6423  159.6130 N.3     1  UNL1       -0.2751
     36 C         137.6923  143.6000  162.8421 C.3     1  UNL1        0.0718
     37 C         137.9718  142.2684  163.4736 C.ar    1  UNL1        0.1207
     38 N         138.0802  141.6406  164.8315 N.ar    1  UNL1       -0.2309
     39 C         138.4044  140.1879  164.6461 C.ar    1  UNL1        0.0983
     40 C         138.6278  139.0761  165.6279 C.ar    1  UNL1        0.0206
     41 C         138.9432  137.6942  165.1371 C.ar    1  UNL1        0.0016
     42 C         139.0352  137.4242  163.6645 C.ar    1  UNL1        0.0016
     43 C         138.8118  138.5360  162.6827 C.ar    1  UNL1        0.0188
     44 C         138.4965  139.9178  163.1735 C.ar    1  UNL1        0.0785
     45 N         138.2291  141.2037  162.4489 N.ar    1  UNL1       -0.3167
@<TRIPOS>BOND
     1    36    37    1
     2    37    38   ar
     3    38    39   ar
     4    39    40   ar
     5    40    41   ar
     6    41    42   ar
     7    42    43   ar
     8    43    44   ar
     9    44    45   ar
    10    45    28    1
    11    28    29    1
    12    29    30    1
    13    30    31    1
    14    31    32    1
    15    32    33    1
    16    33    34    1
    17    33    35    1
    18    35    27    1
    19    27    26    1
    20    26     1    1
    21     1     9    1
    22     9    10   ar
    23    10    11   ar
    24    11    12   ar
    25    12    13   ar
    26    13    14   ar
    27     1     2    1
    28     2     3    1
    29     3     4    1
    30     4     5   am
    31     5     6    2
    32     5    15    1
    33    15    16    1
    34    15    17    1
    35    15    18    1
    36    18    19    2
    37    18    20   am
    38    20    22    1
    39    22    23    1
    40    22    24    2
    41    22    25    2
    42     4     7    1
    43     7     8    1
    44    45    37   ar
    45    34    28    1
    46     8     1    1
    47    44    39   ar
    48    35    30    1
    49    14     9   ar
    50    20    21    1
@<TRIPOS>MOLECULE
*****
 45 50 0 0 0
SMALL
GASTEIGER

@<TRIPOS>ATOM
      1 C         141.7116  141.8268  165.0076 C.3     1  UNL1        0.0235
      2 C         141.8011  140.8871  163.8418 C.3     1  UNL1        0.0256
      3 C         141.9329  141.4297  162.4496 C.3     1  UNL1        0.0937
      4 N         141.9751  142.9118  162.2231 N.am    1  UNL1       -0.2792
      5 C         142.1068  143.4544  160.8308 C.2     1  UNL1        0.2330
      6 O         142.1490  144.9366  160.6043 O.2     1  UNL1       -0.2744
      7 C         141.8856  143.8515  163.3888 C.3     1  UNL1        0.0937
      8 C         141.7539  143.3091  164.7810 C.3     1  UNL1        0.0256
      9 C         141.5932  142.3101  166.4227 C.ar    1  UNL1       -0.0226
     10 C         140.3096  142.9208  166.9017 C.ar    1  UNL1       -0.0043
     11 C         140.1912  143.4041  168.3168 C.ar    1  UNL1       -0.0003
     12 C         141.3564  143.2766  169.2528 C.ar    1  UNL1       -0.0000
     13 C         142.6400  142.6659  168.7738 C.ar    1  UNL1       -0.0003
     14 C         142.7583  142.1827  167.3587 C.ar    1  UNL1       -0.0043
     15 C         142.1963  142.5146  159.6651 C.3     1  UNL1        0.1388
     16 C         140.6996  142.4914  159.5689 C.3     1  UNL1        0.0184
     17 C         143.6930  142.5379  159.7614 C.3     1  UNL1        0.0184
     18 C         142.2859  141.5749  158.4994 C.2     1  UNL1        0.2479
     19 O         141.8099  142.0116  157.1456 O.2     1  UNL1       -0.2731
     20 N         142.8514  140.1984  158.6875 N.am    1  UNL1       -0.1883
     21 H         143.1638  139.9117  159.5761 H       1  UNL1        0.1762
     22 S         142.9411  139.2585  157.5219 S.O2    1  UNL1        0.0578
     23 C         143.0306  138.3187  156.3563 C.3     1  UNL1        0.1997
     24 O         141.5643  138.7477  157.8280 O.2     1  UNL1       -0.1544
     25 O         144.3178  139.7694  157.2158 O.2     1  UNL1       -0.1544
     26 C         141.6283  140.5125  165.7255 C.3     1  UNL1        0.0215
     27 C         140.4043  139.6569  165.5842 C.3     1  UNL1        0.0723
     28 C         140.3510  139.6197  165.4413 C.3     1  UNL1        0.0893
     29 C         139.3373  140.7106  165.6215 C.3     1  UNL1        0.0386
     30 C         138.3430  140.9974  164.5356 C.3     1  UNL1        0.0594
     31 C         137.5817  140.9320  163.2448 C.3     1  UNL1        0.0174
     32 C         138.1782  139.8380  162.4097 C.3     1  UNL1        0.0174
     33 C         139.3082  139.2272  163.1844 C.3     1  UNL1        0.0594
     34 C         140.3704  138.8157  164.1752 C.3     1  UNL1        0.0386
     35 N         139.4100  139.9437  164.4983 N.3     1  UNL1       -0.2751
     36 C         143.0450  138.5569  164.8858 C.3     1  UNL1        0.0718
     37 C         142.7315  138.7936  166.3335 C.ar    1  UNL1        0.1207
     38 N         143.3708  138.6625  167.6841 N.ar    1  UNL1       -0.2309
     39 C         142.3797  139.1209  168.7125 C.ar    1  UNL1        0.0983
     40 C         142.4554  139.2145  170.2076 C.ar    1  UNL1        0.0206
     41 C         141.2793  139.7224  170.9878 C.ar    1  UNL1        0.0016
     42 C         140.0274  140.1367  170.2728 C.ar    1  UNL1        0.0016
     43 C         139.9517  140.0431  168.7776 C.ar    1  UNL1        0.0188
     44 C         141.1279  139.5352  167.9975 C.ar    1  UNL1        0.0785
     45 N         141.3453  139.3330  166.5272 N.ar    1  UNL1       -0.3167
@<TRIPOS>BOND
     1    36    37    1
     2    37    38   ar
     3    38    39   ar
     4    39    40   ar
     5    40    41   ar
     6    41    42   ar
     7    42    43   ar
     8    43    44   ar
     9    44    45   ar
    10    45    28    1
    11    28    29    1
    12    29    30    1
    13    30    31    1
    14    31    32    1
    15    32    33    1
    16    33    34    1
    17    33    35    1
    18    35    27    1
    19    27    26    1
    20    26     1    1
    21     1     9    1
    22     9    10   ar
    23    10    11   ar
    24    11    12   ar
    25    12    13   ar
    26    13    14   ar
    27     1     2    1
    28     2     3    1
    29     3     4    1
    30     4     5   am
    31     5     6    2
    32     5    15    1
    33    15    16    1
    34    15    17    1
    35    15    18    1
    36    18    19    2
    37    18    20   am
    38    20    22    1
    39    22    23    1
    40    22    24    2
    41    22    25    2
    42     4     7    1
    43     7     8    1
    44    45    37   ar
    45    34    28    1
    46     8     1    1
    47    44    39   ar
    48    35    30    1
    49    14     9   ar
    50    20    21    1
@<TRIPOS>MOLECULE
*****
 45 50 0 0 0
SMALL
GASTEIGER

@<TRIPOS>ATOM
      1 C         141.1362  140.9559  161.5226 C.3     1  UNL1        0.0235
      2 C         142.2854  140.3380  160.7826 C.3     1  UNL1        0.0256
      3 C         143.0031  141.1207  159.7232 C.3     1  UNL1        0.0937
      4 N         142.5716  142.5213  159.4038 N.am    1  UNL1       -0.2792
      5 C         143.2893  143.3041  158.3444 C.2     1  UNL1        0.2330
      6 O         142.8579  144.7047  158.0250 O.2     1  UNL1       -0.2744
      7 C         141.4224  143.1393  160.1438 C.3     1  UNL1        0.0937
      8 C         140.7047  142.3566  161.2031 C.3     1  UNL1        0.0256
      9 C         139.9997  141.1055  162.4902 C.ar    1  UNL1       -0.0226
     10 C         140.2786  141.2728  163.9545 C.ar    1  UNL1       -0.0043
     11 C         139.1421  141.4224  164.9221 C.ar    1  UNL1       -0.0003
     12 C         137.7269  141.4047  164.4252 C.ar    1  UNL1       -0.0000
     13 C         137.4481  141.2375  162.9609 C.ar    1  UNL1       -0.0003
     14 C         138.5846  141.0879  161.9934 C.ar    1  UNL1       -0.0043
     15 C         144.4385  142.6860  157.6045 C.3     1  UNL1        0.1388
     16 C         143.5485  142.4485  156.4206 C.3     1  UNL1        0.0184
     17 C         145.3284  142.9236  158.7884 C.3     1  UNL1        0.0184
     18 C         145.5877  142.0681  156.8646 C.2     1  UNL1        0.2479
     19 O         145.6548  140.5796  156.6915 O.2     1  UNL1       -0.2731
     20 N         146.6699  142.9385  156.2980 N.am    1  UNL1       -0.1883
     21 H         146.6259  143.9155  156.4117 H       1  UNL1        0.1762
     22 S         147.8192  142.3206  155.5581 S.O2    1  UNL1        0.0578
     23 C         148.9685  141.7027  154.8184 C.3     1  UNL1        0.1997
     24 O         148.6143  142.2776  156.8293 O.2     1  UNL1       -0.1544
     25 O         147.0240  142.3637  154.2870 O.2     1  UNL1       -0.1544
     26 C         141.1730  139.6073  162.1780 C.3     1  UNL1        0.0215
     27 C         140.8166  138.3809  161.3911 C.3     1  UNL1        0.0723
     28 C         140.8816  138.3587  161.2500 C.3     1  UNL1        0.0893
     29 C         139.5913  138.8526  160.6656 C.3     1  UNL1        0.0386
     30 C         139.4263  138.9382  159.1772 C.3     1  UNL1        0.0594
     31 C         139.7002  138.8586  157.7045 C.3     1  UNL1        0.0174
     32 C         141.0947  138.3378  157.5199 C.3     1  UNL1        0.0174
     33 C         141.6827  138.0954  158.8785 C.3     1  UNL1        0.0594
     34 C         142.0067  137.9505  160.3459 C.3     1  UNL1        0.0386
     35 N         140.6515  138.4665  159.9028 N.3     1  UNL1       -0.2751
     36 C         138.6643  137.6322  163.0532 C.3     1  UNL1        0.0718
     37 C         139.9759  137.9123  163.7249 C.ar    1  UNL1        0.1207
     38 N         140.5790  137.9496  165.0979 N.ar    1  UNL1       -0.2309
     39 C         142.0225  138.3334  164.9598 C.ar    1  UNL1        0.0983
     40 C         143.1110  138.5266  165.9736 C.ar    1  UNL1        0.0206
     41 C         144.4886  138.9198  165.5291 C.ar    1  UNL1        0.0016
     42 C         144.7776  139.1198  164.0709 C.ar    1  UNL1        0.0016
     43 C         143.6891  138.9266  163.0571 C.ar    1  UNL1        0.0188
     44 C         142.3115  138.5334  163.5016 C.ar    1  UNL1        0.0785
     45 N         141.0467  138.2732  162.7384 N.ar    1  UNL1       -0.3167
@<TRIPOS>BOND
     1    36    37    1
     2    37    38   ar
     3    38    39   ar
     4    39    40   ar
     5    40    41   ar
     6    41    42   ar
     7    42    43   ar
     8    43    44   ar
     9    44    45   ar
    10    45    28    1
    11    28    29    1
    12    29    30    1
    13    30    31    1
    14    31    32    1
    15    32    33    1
    16    33    34    1
    17    33    35    1
    18    35    27    1
    19    27    26    1
    20    26     1    1
    21     1     9    1
    22     9    10   ar
    23    10    11   ar
    24    11    12   ar
    25    12    13   ar
    26    13    14   ar
    27     1     2    1
    28     2     3    1
    29     3     4    1
    30     4     5   am
    31     5     6    2
    32     5    15    1
    33    15    16    1
    34    15    17    1
    35    15    18    1
    36    18    19    2
    37    18    20   am
    38    20    22    1
    39    22    23    1
    40    22    24    2
    41    22    25    2
    42     4     7    1
    43     7     8    1
    44    45    37   ar
    45    34    28    1
    46     8     1    1
    47    44    39   ar
    48    35    30    1
    49    14     9   ar
    50    20    21    1
@<TRIPOS>MOLECULE
*****
 45 50 0 0 0
SMALL
GASTEIGER

@<TRIPOS>ATOM
      1 C         140.8145  141.9982  161.6065 C.3     1  UNL1        0.0235
      2 C         141.2499  142.5663  162.9247 C.3     1  UNL1        0.0256
      3 C         141.2329  141.7071  164.1542 C.3     1  UNL1        0.0937
      4 N         140.7804  140.2797  164.0654 N.am    1  UNL1       -0.2792
      5 C         140.7634  139.4205  165.2948 C.2     1  UNL1        0.2330
      6 O         140.3109  137.9931  165.2061 O.2     1  UNL1       -0.2744
      7 C         140.3449  139.7116  162.7472 C.3     1  UNL1        0.0937
      8 C         140.3619  140.5707  161.5179 C.3     1  UNL1        0.0256
      9 C         140.4979  141.9157  160.1426 C.ar    1  UNL1       -0.0226
     10 C         141.4226  141.1842  159.2154 C.ar    1  UNL1       -0.0043
     11 C         141.1060  141.1018  157.7514 C.ar    1  UNL1       -0.0003
     12 C         139.8648  141.7509  157.2148 C.ar    1  UNL1       -0.0000
     13 C         138.9401  142.4825  158.1421 C.ar    1  UNL1       -0.0003
     14 C         139.2567  142.5649  159.6060 C.ar    1  UNL1       -0.0043
     15 C         141.1989  139.9887  166.6130 C.3     1  UNL1        0.1388
     16 C         142.6132  139.5838  166.3202 C.3     1  UNL1        0.0184
     17 C         139.7845  140.3935  166.9056 C.3     1  UNL1        0.0184
     18 C         141.6343  140.5569  167.9311 C.2     1  UNL1        0.2479
     19 O         141.8348  139.6503  169.1092 O.2     1  UNL1       -0.2731
     20 N         141.8693  142.0318  168.0712 N.am    1  UNL1       -0.1883
     21 H         141.7377  142.6268  167.2979 H       1  UNL1        0.1762
     22 S         142.3047  142.6001  169.3893 S.O2    1  UNL1        0.0578
     23 C         142.7400  143.1684  170.7074 C.3     1  UNL1        0.1997
     24 O         140.8763  142.6353  169.8458 O.2     1  UNL1       -0.1544
     25 O         143.7331  142.5648  168.9326 O.2     1  UNL1       -0.1544
     26 C         141.1570  143.3968  161.1869 C.3     1  UNL1        0.0215
     27 C         142.5759  143.8772  161.2652 C.3     1  UNL1        0.0723
     28 C         142.6613  143.8616  161.3960 C.3     1  UNL1        0.0893
     29 C         143.2409  142.6250  160.7752 C.3     1  UNL1        0.0386
     30 C         144.2649  141.8211  161.5203 C.3     1  UNL1        0.0594
     31 C         145.2146  141.3543  162.5833 C.3     1  UNL1        0.0174
     32 C         145.1367  142.3179  163.7302 C.3     1  UNL1        0.0174
     33 C         144.1387  143.3803  163.3760 C.3     1  UNL1        0.0594
     34 C         143.1058  144.2941  162.7617 C.3     1  UNL1        0.0386
     35 N         143.5999  143.0733  162.0102 N.3     1  UNL1       -0.2751
     36 C         140.4667  145.2867  162.7554 C.3     1  UNL1        0.0718
     37 C         140.4928  145.4187  161.2615 C.ar    1  UNL1        0.1207
     38 N         139.7263  146.0760  160.1523 N.ar    1  UNL1       -0.2309
     39 C         140.3970  145.7292  158.8562 C.ar    1  UNL1        0.0983
     40 C         140.0849  146.0945  157.4353 C.ar    1  UNL1        0.0206
     41 C         140.9539  145.5881  156.3225 C.ar    1  UNL1        0.0016
     42 C         142.1351  144.7164  156.6307 C.ar    1  UNL1        0.0016
     43 C         142.4472  144.3510  158.0516 C.ar    1  UNL1        0.0188
     44 C         141.5782  144.8574  159.1644 C.ar    1  UNL1        0.0785
     45 N         141.6374  144.6655  160.6509 N.ar    1  UNL1       -0.3167
@<TRIPOS>BOND
     1    36    37    1
     2    37    38   ar
     3    38    39   ar
     4    39    40   ar
     5    40    41   ar
     6    41    42   ar
     7    42    43   ar
     8    43    44   ar
     9    44    45   ar
    10    45    28    1
    11    28    29    1
    12    29    30    1
    13    30    31    1
    14    31    32    1
    15    32    33    1
    16    33    34    1
    17    33    35    1
    18    35    27    1
    19    27    26    1
    20    26     1    1
    21     1     9    1
    22     9    10   ar
    23    10    11   ar
    24    11    12   ar
    25    12    13   ar
    26    13    14   ar
    27     1     2    1
    28     2     3    1
    29     3     4    1
    30     4     5   am
    31     5     6    2
    32     5    15    1
    33    15    16    1
    34    15    17    1
    35    15    18    1
    36    18    19    2
    37    18    20   am
    38    20    22    1
    39    22    23    1
    40    22    24    2
    41    22    25    2
    42     4     7    1
    43     7     8    1
    44    45    37   ar
    45    34    28    1
    46     8     1    1
    47    44    39   ar
    48    35    30    1
    49    14     9   ar
    50    20    21    1
@<TRIPOS>MOLECULE
*****
 45 50 0 0 0
SMALL
GASTEIGER

@<TRIPOS>ATOM
      1 C         140.4274  142.0918  161.5786 C.3     1  UNL1        0.0235
      2 C         141.4132  141.3010  160.7707 C.3     1  UNL1        0.0256
      3 C         140.9613  140.5723  159.5399 C.3     1  UNL1        0.0937
      4 N         139.5234  140.6344  159.1171 N.am    1  UNL1       -0.2792
      5 C         139.0715  139.9057  157.8863 C.2     1  UNL1        0.2330
      6 O         137.6337  139.9679  157.4634 O.2     1  UNL1       -0.2744
      7 C         138.5376  141.4253  159.9249 C.3     1  UNL1        0.0937
      8 C         138.9895  142.1540  161.1556 C.3     1  UNL1        0.0256
      9 C         139.8741  142.9667  162.6643 C.ar    1  UNL1       -0.0226
     10 C         139.7244  142.4297  164.0568 C.ar    1  UNL1       -0.0043
     11 C         139.1711  143.3045  165.1425 C.ar    1  UNL1       -0.0003
     12 C         138.7675  144.7162  164.8355 C.ar    1  UNL1       -0.0000
     13 C         138.9172  145.2532  163.4429 C.ar    1  UNL1       -0.0003
     14 C         139.4705  144.3783  162.3573 C.ar    1  UNL1       -0.0043
     15 C         140.0574  139.1149  157.0785 C.3     1  UNL1        0.1388
     16 C         140.2800  140.3016  156.1885 C.3     1  UNL1        0.0184
     17 C         139.8347  137.9282  157.9686 C.3     1  UNL1        0.0184
     18 C         141.0433  138.3240  156.2707 C.2     1  UNL1        0.2479
     19 O         141.0761  138.4670  154.7779 O.2     1  UNL1       -0.2731
     20 N         141.9963  137.3900  156.9558 N.am    1  UNL1       -0.1883
     21 H         141.9748  137.2961  157.9356 H       1  UNL1        0.1762
     22 S         142.9823  136.5990  156.1481 S.O2    1  UNL1        0.0578
     23 C         143.9681  135.8080  155.3404 C.3     1  UNL1        0.1997
     24 O         141.9872  135.4832  156.0264 O.2     1  UNL1       -0.1544
     25 O         143.9772  137.7149  156.2699 O.2     1  UNL1       -0.1544
     26 C         141.6730  142.3335  162.3785 C.3     1  UNL1        0.0215
     27 C         142.7742  143.1814  161.8140 C.3     1  UNL1        0.0723
     28 C         142.8295  143.1587  161.6689 C.3     1  UNL1        0.0893
     29 C         141.9195  144.2689  161.2337 C.3     1  UNL1        0.0386
     30 C         141.8815  144.6865  159.7934 C.3     1  UNL1        0.0594
     31 C         142.1632  144.7620  158.3221 C.3     1  UNL1        0.0174
     32 C         143.1920  143.7212  157.9931 C.3     1  UNL1        0.0174
     33 C         143.5461  143.0024  159.2612 C.3     1  UNL1        0.0594
     34 C         143.7014  142.4662  160.6639 C.3     1  UNL1        0.0386
     35 N         142.7361  143.5990  160.3739 N.3     1  UNL1       -0.2751
     36 C         142.6456  145.0929  163.8872 C.3     1  UNL1        0.0718
     37 C         142.7804  143.6556  164.2948 C.ar    1  UNL1        0.1207
     38 N         142.8584  142.8154  165.5349 N.ar    1  UNL1       -0.2309
     39 C         142.9937  141.3815  165.1156 C.ar    1  UNL1        0.0983
     40 C         143.1125  140.1118  165.9053 C.ar    1  UNL1        0.0206
     41 C         143.2369  138.7962  165.1957 C.ar    1  UNL1        0.0016
     42 C         143.2426  138.7503  163.6964 C.ar    1  UNL1        0.0016
     43 C         143.1238  140.0200  162.9068 C.ar    1  UNL1        0.0188
     44 C         142.9994  141.3356  163.6164 C.ar    1  UNL1        0.0785
     45 N         142.8675  142.7411  163.1091 N.ar    1  UNL1       -0.3167
@<TRIPOS>BOND
     1    36    37    1
     2    37    38   ar
     3    38    39   ar
     4    39    40   ar
     5    40    41   ar
     6    41    42   ar
     7    42    43   ar
     8    43    44   ar
     9    44    45   ar
    10    45    28    1
    11    28    29    1
    12    29    30    1
    13    30    31    1
    14    31    32    1
    15    32    33    1
    16    33    34    1
    17    33    35    1
    18    35    27    1
    19    27    26    1
    20    26     1    1
    21     1     9    1
    22     9    10   ar
    23    10    11   ar
    24    11    12   ar
    25    12    13   ar
    26    13    14   ar
    27     1     2    1
    28     2     3    1
    29     3     4    1
    30     4     5   am
    31     5     6    2
    32     5    15    1
    33    15    16    1
    34    15    17    1
    35    15    18    1
    36    18    19    2
    37    18    20   am
    38    20    22    1
    39    22    23    1
    40    22    24    2
    41    22    25    2
    42     4     7    1
    43     7     8    1
    44    45    37   ar
    45    34    28    1
    46     8     1    1
    47    44    39   ar
    48    35    30    1
    49    14     9   ar
    50    20    21    1
@<TRIPOS>MOLECULE
*****
 45 50 0 0 0
SMALL
GASTEIGER

@<TRIPOS>ATOM
      1 C         140.3159  142.1731  161.8244 C.3     1  UNL1        0.0235
      2 C         141.0842  141.0646  161.1680 C.3     1  UNL1        0.0256
      3 C         141.0294  140.8936  159.6787 C.3     1  UNL1        0.0937
      4 N         140.2065  141.8312  158.8459 N.am    1  UNL1       -0.2792
      5 C         140.1517  141.6602  157.3567 C.2     1  UNL1        0.2330
      6 O         139.3288  142.5978  156.5238 O.2     1  UNL1       -0.2744
      7 C         139.4382  142.9397  159.5023 C.3     1  UNL1        0.0937
      8 C         139.4929  143.1107  160.9914 C.3     1  UNL1        0.0256
      9 C         139.7672  143.0635  162.8997 C.ar    1  UNL1       -0.0226
     10 C         138.3119  142.9987  163.2570 C.ar    1  UNL1       -0.0043
     11 C         137.7633  143.8891  164.3324 C.ar    1  UNL1       -0.0003
     12 C         138.6701  144.8443  165.0502 C.ar    1  UNL1       -0.0000
     13 C         140.1254  144.9091  164.6928 C.ar    1  UNL1       -0.0003
     14 C         140.6740  144.0187  163.6175 C.ar    1  UNL1       -0.0043
     15 C         140.9200  140.5516  156.7003 C.3     1  UNL1        0.1388
     16 C         139.7465  139.6341  156.8763 C.3     1  UNL1        0.0184
     17 C         142.0935  141.4691  156.5244 C.3     1  UNL1        0.0184
     18 C         141.6884  139.4430  156.0440 C.2     1  UNL1        0.2479
     19 O         141.6546  139.2878  154.5524 O.2     1  UNL1       -0.2731
     20 N         142.4906  138.4897  156.8793 N.am    1  UNL1       -0.1883
     21 H         142.5128  138.5916  157.8582 H       1  UNL1        0.1762
     22 S         143.2590  137.3812  156.2231 S.O2    1  UNL1        0.0578
     23 C         144.0273  136.2725  155.5668 C.3     1  UNL1        0.1997
     24 O         142.0909  136.4594  156.4127 O.2     1  UNL1       -0.1544
     25 O         144.4270  138.3030  156.0335 O.2     1  UNL1       -0.1544
     26 C         140.9483  141.5448  163.0306 C.3     1  UNL1        0.0215
     27 C         140.4897  140.1964  163.5013 C.3     1  UNL1        0.0723
     28 C         140.4712  140.0786  163.3992 C.3     1  UNL1        0.0893
     29 C         139.0056  140.3977  163.4181 C.3     1  UNL1        0.0386
     30 C         138.0526  139.5957  162.5823 C.3     1  UNL1        0.0594
     31 C         137.4991  138.5760  161.6316 C.3     1  UNL1        0.0174
     32 C         138.6411  137.7444  161.1273 C.3     1  UNL1        0.0174
     33 C         139.9004  138.2502  161.7663 C.3     1  UNL1        0.0594
     34 C         140.9836  138.9575  162.5446 C.3     1  UNL1        0.0386
     35 N         139.5367  139.3944  162.6656 N.3     1  UNL1       -0.2751
     36 C         139.7330  141.1775  166.0342 C.3     1  UNL1        0.0718
     37 C         141.1318  141.4744  165.5811 C.ar    1  UNL1        0.1207
     38 N         142.3638  142.1904  166.0494 N.ar    1  UNL1       -0.2309
     39 C         143.4177  142.0392  164.9928 C.ar    1  UNL1        0.0983
     40 C         144.8311  142.5340  164.9068 C.ar    1  UNL1        0.0206
     41 C         145.6638  142.2193  163.6995 C.ar    1  UNL1        0.0016
     42 C         145.0831  141.4098  162.5782 C.ar    1  UNL1        0.0016
     43 C         143.6697  140.9150  162.6641 C.ar    1  UNL1        0.0188
     44 C         142.8370  141.2297  163.8714 C.ar    1  UNL1        0.0785
     45 N         141.4242  140.8806  164.2350 N.ar    1  UNL1       -0.3167
@<TRIPOS>BOND
     1    36    37    1
     2    37    38   ar
     3    38    39   ar
     4    39    40   ar
     5    40    41   ar
     6    41    42   ar
     7    42    43   ar
     8    43    44   ar
     9    44    45   ar
    10    45    28    1
    11    28    29    1
    12    29    30    1
    13    30    31    1
    14    31    32    1
    15    32    33    1
    16    33    34    1
    17    33    35    1
    18    35    27    1
    19    27    26    1
    20    26     1    1
    21     1     9    1
    22     9    10   ar
    23    10    11   ar
    24    11    12   ar
    25    12    13   ar
    26    13    14   ar
    27     1     2    1
    28     2     3    1
    29     3     4    1
    30     4     5   am
    31     5     6    2
    32     5    15    1
    33    15    16    1
    34    15    17    1
    35    15    18    1
    36    18    19    2
    37    18    20   am
    38    20    22    1
    39    22    23    1
    40    22    24    2
    41    22    25    2
    42     4     7    1
    43     7     8    1
    44    45    37   ar
    45    34    28    1
    46     8     1    1
    47    44    39   ar
    48    35    30    1
    49    14     9   ar
    50    20    21    1
@<TRIPOS>MOLECULE
*****
 45 50 0 0 0
SMALL
GASTEIGER

@<TRIPOS>ATOM
      1 C         142.1049  141.4045  161.9005 C.3     1  UNL1        0.0235
      2 C         141.0808  140.8489  160.9558 C.3     1  UNL1        0.0256
      3 C         141.5026  140.3294  159.6133 C.3     1  UNL1        0.0937
      4 N         142.9485  140.3656  159.2155 N.am    1  UNL1       -0.2792
      5 C         143.3703  139.8462  157.8730 C.2     1  UNL1        0.2330
      6 O         144.8161  139.8824  157.4752 O.2     1  UNL1       -0.2744
      7 C         143.9725  140.9213  160.1603 C.3     1  UNL1        0.0937
      8 C         143.5508  141.4407  161.5027 C.3     1  UNL1        0.0256
      9 C         142.6985  142.0221  163.1320 C.ar    1  UNL1       -0.0226
     10 C         143.2341  143.4224  163.0851 C.ar    1  UNL1       -0.0043
     11 C         143.8277  144.0399  164.3165 C.ar    1  UNL1       -0.0003
     12 C         143.8856  143.2571  165.5947 C.ar    1  UNL1       -0.0000
     13 C         143.3499  141.8568  165.6416 C.ar    1  UNL1       -0.0003
     14 C         142.7564  141.2393  164.4101 C.ar    1  UNL1       -0.0043
     15 C         142.3461  139.2905  156.9283 C.3     1  UNL1        0.1388
     16 C         142.5562  137.9221  157.5054 C.3     1  UNL1        0.0184
     17 C         142.1361  140.6591  156.3512 C.3     1  UNL1        0.0184
     18 C         141.3220  138.7350  155.9836 C.2     1  UNL1        0.2479
     19 O         141.7589  138.0267  154.7356 O.2     1  UNL1       -0.2731
     20 N         139.8609  138.8878  156.2868 N.am    1  UNL1       -0.1883
     21 H         139.5742  139.3527  157.1059 H       1  UNL1        0.1762
     22 S         138.8367  138.3323  155.3422 S.O2    1  UNL1        0.0578
     23 C         137.8125  137.7768  154.3974 C.3     1  UNL1        0.1997
     24 O         138.8236  139.6315  154.5926 O.2     1  UNL1       -0.1544
     25 O         138.8500  137.0331  156.0918 O.2     1  UNL1       -0.1544
     26 C         140.8653  141.5828  162.7259 C.3     1  UNL1        0.0215
     27 C         139.8443  142.6094  162.3338 C.3     1  UNL1        0.0723
     28 C         139.7974  142.6216  162.1845 C.3     1  UNL1        0.0893
     29 C         140.7511  143.7730  162.0624 C.3     1  UNL1        0.0386
     30 C         140.8833  144.5023  160.7583 C.3     1  UNL1        0.0594
     31 C         140.6923  144.9152  159.3289 C.3     1  UNL1        0.0174
     32 C         139.6675  144.0068  158.7170 C.3     1  UNL1        0.0174
     33 C         139.2250  143.0325  159.7681 C.3     1  UNL1        0.0594
     34 C         138.9760  142.1996  161.0025 C.3     1  UNL1        0.0386
     35 N         139.9765  143.3387  161.0298 N.3     1  UNL1       -0.2751
     36 C         140.0750  143.9704  164.7920 C.3     1  UNL1        0.0718
     37 C         139.7913  142.4988  164.8546 C.ar    1  UNL1        0.1207
     38 N         139.5878  141.4097  165.8658 N.ar    1  UNL1       -0.2309
     39 C         139.3358  140.1302  165.1247 C.ar    1  UNL1        0.0983
     40 C         139.0690  138.7320  165.5979 C.ar    1  UNL1        0.0206
     41 C         138.8500  137.6321  164.6018 C.ar    1  UNL1        0.0016
     42 C         138.8979  137.9304  163.1326 C.ar    1  UNL1        0.0016
     43 C         139.1647  139.3285  162.6594 C.ar    1  UNL1        0.0188
     44 C         139.3837  140.4284  163.6554 C.ar    1  UNL1        0.0785
     45 N         139.6652  141.8923  163.4886 N.ar    1  UNL1       -0.3167
@<TRIPOS>BOND
     1    36    37    1
     2    37    38   ar
     3    38    39   ar
     4    39    40   ar
     5    40    41   ar
     6    41    42   ar
     7    42    43   ar
     8    43    44   ar
     9    44    45   ar
    10    45    28    1
    11    28    29    1
    12    29    30    1
    13    30    31    1
    14    31    32    1
    15    32    33    1
    16    33    34    1
    17    33    35    1
    18    35    27    1
    19    27    26    1
    20    26     1    1
    21     1     9    1
    22     9    10   ar
    23    10    11   ar
    24    11    12   ar
    25    12    13   ar
    26    13    14   ar
    27     1     2    1
    28     2     3    1
    29     3     4    1
    30     4     5   am
    31     5     6    2
    32     5    15    1
    33    15    16    1
    34    15    17    1
    35    15    18    1
    36    18    19    2
    37    18    20   am
    38    20    22    1
    39    22    23    1
    40    22    24    2
    41    22    25    2
    42     4     7    1
    43     7     8    1
    44    45    37   ar
    45    34    28    1
    46     8     1    1
    47    44    39   ar
    48    35    30    1
    49    14     9   ar
    50    20    21    1
@<TRIPOS>MOLECULE
*****
 45 50 0 0 0
SMALL
GASTEIGER

@<TRIPOS>ATOM
      1 C         142.2443  140.4505  161.0490 C.3     1  UNL1        0.0235
      2 C         140.8554  140.3921  160.4855 C.3     1  UNL1        0.0256
      3 C         140.6347  139.9080  159.0830 C.3     1  UNL1        0.0937
      4 N         141.8030  139.4823  158.2440 N.am    1  UNL1       -0.2792
      5 C         141.5824  138.9981  156.8416 C.2     1  UNL1        0.2330
      6 O         142.7507  138.5724  156.0026 O.2     1  UNL1       -0.2744
      7 C         143.1919  139.5407  158.8076 C.3     1  UNL1        0.0937
      8 C         143.4126  140.0248  160.2100 C.3     1  UNL1        0.0256
      9 C         143.3624  140.6851  162.0212 C.ar    1  UNL1       -0.0226
     10 C         143.5264  139.7822  163.2076 C.ar    1  UNL1       -0.0043
     11 C         144.6445  140.0167  164.1797 C.ar    1  UNL1       -0.0003
     12 C         145.5985  141.1542  163.9652 C.ar    1  UNL1       -0.0000
     13 C         145.4344  142.0572  162.7787 C.ar    1  UNL1       -0.0003
     14 C         144.3163  141.8225  161.8067 C.ar    1  UNL1       -0.0043
     15 C         140.1935  138.9397  156.2781 C.3     1  UNL1        0.1388
     16 C         140.3440  140.3400  155.7619 C.3     1  UNL1        0.0184
     17 C         140.0430  137.5394  156.7944 C.3     1  UNL1        0.0184
     18 C         138.8045  138.8812  155.7147 C.2     1  UNL1        0.2479
     19 O         138.1784  137.5552  155.3992 O.2     1  UNL1       -0.2731
     20 N         138.0417  140.1488  155.4669 N.am    1  UNL1       -0.1883
     21 H         138.4527  141.0191  155.6740 H       1  UNL1        0.1762
     22 S         136.6528  140.0904  154.9035 S.O2    1  UNL1        0.0578
     23 C         135.2638  140.0320  154.3402 C.3     1  UNL1        0.1997
     24 O         136.0883  140.1134  156.2931 O.2     1  UNL1       -0.1544
     25 O         137.2174  140.0674  153.5140 O.2     1  UNL1       -0.1544
     26 C         141.4643  140.9577  162.2256 C.3     1  UNL1        0.0215
     27 C         140.8340  142.3181  162.1776 C.3     1  UNL1        0.0723
     28 C         140.7498  142.3617  162.0526 C.3     1  UNL1        0.0893
     29 C         141.9689  143.1026  161.5888 C.3     1  UNL1        0.0386
     30 C         141.9357  143.8688  160.2997 C.3     1  UNL1        0.0594
     31 C         141.4632  144.4699  159.0092 C.3     1  UNL1        0.0174
     32 C         140.0364  144.0568  158.8004 C.3     1  UNL1        0.0174
     33 C         139.6270  143.2005  159.9619 C.3     1  UNL1        0.0594
     34 C         139.4976  142.3872  161.2272 C.3     1  UNL1        0.0386
     35 N         140.8009  143.0842  160.8886 N.3     1  UNL1       -0.2751
     36 C         142.2332  143.3037  164.4206 C.3     1  UNL1        0.0718
     37 C         141.5096  142.0008  164.5898 C.ar    1  UNL1        0.1207
     38 N         141.2710  140.9452  165.6284 N.ar    1  UNL1       -0.2309
     39 C         140.3969  139.8876  165.0223 C.ar    1  UNL1        0.0983
     40 C         139.8367  138.6105  165.5747 C.ar    1  UNL1        0.0206
     41 C         138.9749  137.7353  164.7138 C.ar    1  UNL1        0.0016
     42 C         138.6732  138.1372  163.3005 C.ar    1  UNL1        0.0016
     43 C         139.2334  139.4143  162.7481 C.ar    1  UNL1        0.0188
     44 C         140.0953  140.2895  163.6090 C.ar    1  UNL1        0.0785
     45 N         140.7829  141.5955  163.3417 N.ar    1  UNL1       -0.3167
@<TRIPOS>BOND
     1    36    37    1
     2    37    38   ar
     3    38    39   ar
     4    39    40   ar
     5    40    41   ar
     6    41    42   ar
     7    42    43   ar
     8    43    44   ar
     9    44    45   ar
    10    45    28    1
    11    28    29    1
    12    29    30    1
    13    30    31    1
    14    31    32    1
    15    32    33    1
    16    33    34    1
    17    33    35    1
    18    35    27    1
    19    27    26    1
    20    26     1    1
    21     1     9    1
    22     9    10   ar
    23    10    11   ar
    24    11    12   ar
    25    12    13   ar
    26    13    14   ar
    27     1     2    1
    28     2     3    1
    29     3     4    1
    30     4     5   am
    31     5     6    2
    32     5    15    1
    33    15    16    1
    34    15    17    1
    35    15    18    1
    36    18    19    2
    37    18    20   am
    38    20    22    1
    39    22    23    1
    40    22    24    2
    41    22    25    2
    42     4     7    1
    43     7     8    1
    44    45    37   ar
    45    34    28    1
    46     8     1    1
    47    44    39   ar
    48    35    30    1
    49    14     9   ar
    50    20    21    1
