@<TRIPOS>MOLECULE
*****
 37 40 0 0 0
SMALL
GASTEIGER

@<TRIPOS>ATOM
      1 C         140.5224  143.6828  159.0816 C.3     1  UNL1        0.0758
      2 C         141.8331  142.9722  159.2472 C.3     1  UNL1        0.0370
      3 C         141.8589  141.5405  159.6937 C.3     1  UNL1        0.0741
      4 N         140.5740  140.8192  159.9747 N.3     1  UNL1       -0.2688
      5 C         139.2634  141.5296  159.8091 C.3     1  UNL1        0.0741
      6 C         139.2375  142.9615  159.3626 C.3     1  UNL1        0.0370
      7 O         139.4795  144.3860  156.3581 O.2     1  UNL1       -0.2528
      8 C         139.9751  145.4661  157.2734 C.2     1  UNL1        0.3007
      9 N         139.9493  146.8979  156.8268 N.am    1  UNL1       -0.2889
     10 N         140.4966  145.1145  158.6351 N.am    1  UNL1       -0.2905
     11 H         140.2746  147.6069  157.4275 H       1  UNL1        0.1510
     12 H         140.8219  145.8234  159.2359 H       1  UNL1        0.1509
     13 C         139.4278  147.2495  155.4651 C.3     1  UNL1        0.0933
     14 C         139.2948  148.6881  155.0613 C.3     1  UNL1        0.0465
     15 C         139.8735  149.1584  153.7598 C.3     1  UNL1        0.0041
     16 C         139.7404  150.5968  153.3561 C.3     1  UNL1        0.0002
     17 C         139.0287  151.5650  154.2539 C.3     1  UNL1        0.0025
     18 C         138.4500  151.0948  155.5554 C.3     1  UNL1        0.0293
     19 C         138.5831  149.6563  155.9591 C.3     1  UNL1        0.1121
     20 O         138.0044  149.1859  157.2606 O.3     1  UNL1       -0.3844
     21 H         138.1770  148.2374  157.3673 H       1  UNL1        0.2103
     22 C         140.5999  139.3875  160.4212 C.3     1  UNL1        0.1007
     23 C         140.1278  139.0224  161.7974 C.ar    1  UNL1        0.0129
     24 C         139.1357  137.9486  162.1333 C.ar    1  UNL1        0.0176
     25 C         138.9597  137.9296  163.6228 C.ar    1  UNL1        0.0799
     26 N         139.8431  138.9916  164.2075 N.ar    1  UNL1       -0.3038
     27 C         140.5649  139.6670  163.0794 C.ar    1  UNL1        0.0772
     28 C         139.9803  139.3206  165.6645 C.ar    1  UNL1        0.0640
     29 C         138.7609  139.3947  166.5348 C.ar    1  UNL1        0.0175
     30 C         138.8981  139.7236  167.9918 C.ar    1  UNL1        0.0053
     31 C         140.2549  139.9784  168.5786 C.ar    1  UNL1        0.0715
     32 C         141.4744  139.9042  167.7084 C.ar    1  UNL1        0.0053
     33 C         141.3371  139.5753  166.2513 C.ar    1  UNL1        0.0175
     34 C         140.3922  140.3073  170.0356 C.3     1  UNL1        0.4186
     35 F         140.5295  140.6362  171.4926 F       1  UNL1       -0.1659
     36 F         139.2327  141.2531  169.9314 F       1  UNL1       -0.1659
     37 F         141.5517  139.3614  170.1399 F       1  UNL1       -0.1659
@<TRIPOS>BOND
     1     7     8    2
     2     8     9   am
     3     9    13    1
     4    14    13    1
     5    14    15    1
     6    15    16    1
     7    16    17    1
     8    17    18    1
     9    18    19    1
    10    19    20    1
    11     8    10   am
    12    10     1    1
    13     1     2    1
    14     2     3    1
    15     3     4    1
    16     4    22    1
    17    22    23    1
    18    23    24   ar
    19    24    25   ar
    20    25    26   ar
    21    26    28    1
    22    28    29   ar
    23    29    30   ar
    24    30    31   ar
    25    31    34    1
    26    34    35    1
    27    34    36    1
    28    34    37    1
    29    31    32   ar
    30    32    33   ar
    31    26    27   ar
    32     4     5    1
    33     5     6    1
    34    19    14    1
    35     6     1    1
    36    27    23   ar
    37    33    28   ar
    38     9    11    1
    39    20    21    1
    40    10    12    1
@<TRIPOS>MOLECULE
*****
 37 40 0 0 0
SMALL
GASTEIGER

@<TRIPOS>ATOM
      1 C         142.3186  138.4352  158.3905 C.3     1  UNL1        0.0758
      2 C         142.1960  139.8093  157.8014 C.3     1  UNL1        0.0370
      3 C         142.7738  140.9896  158.5245 C.3     1  UNL1        0.0741
      4 N         143.4742  140.7959  159.8368 N.3     1  UNL1       -0.2688
      5 C         143.5967  139.4220  160.4259 C.3     1  UNL1        0.0741
      6 C         143.0189  138.2416  159.7028 C.3     1  UNL1        0.0370
      7 O         143.8575  137.1390  156.1654 O.2     1  UNL1       -0.2528
      8 C         142.5103  136.6068  156.5549 C.2     1  UNL1        0.3007
      9 N         141.9325  135.4264  155.8317 N.am    1  UNL1       -0.2889
     10 N         141.7408  137.2549  157.6674 N.am    1  UNL1       -0.2905
     11 H         141.0482  135.0771  156.0872 H       1  UNL1        0.1510
     12 H         140.8565  136.9056  157.9230 H       1  UNL1        0.1509
     13 C         142.7020  134.7782  154.7191 C.3     1  UNL1        0.0933
     14 C         143.2232  133.3811  154.8823 C.3     1  UNL1        0.0465
     15 C         142.8617  132.3241  153.8813 C.3     1  UNL1        0.0041
     16 C         143.3829  130.9271  154.0445 C.3     1  UNL1        0.0002
     17 C         144.2655  130.5871  155.2086 C.3     1  UNL1        0.0025
     18 C         144.6270  131.6441  156.2096 C.3     1  UNL1        0.0293
     19 C         144.1058  133.0411  156.0464 C.3     1  UNL1        0.1121
     20 O         144.4673  134.0982  157.0475 O.3     1  UNL1       -0.3844
     21 H         144.0510  134.9375  156.7960 H       1  UNL1        0.2103
     22 C         144.0520  141.9763  160.5599 C.3     1  UNL1        0.1007
     23 C         144.1103  141.9826  162.0588 C.ar    1  UNL1        0.0129
     24 C         145.3384  141.7732  162.8942 C.ar    1  UNL1        0.0176
     25 C         144.9379  141.8605  164.3371 C.ar    1  UNL1        0.0799
     26 N         143.4623  142.1239  164.3935 N.ar    1  UNL1       -0.3038
     27 C         142.9508  142.1993  162.9854 C.ar    1  UNL1        0.0772
     28 C         142.6421  142.2838  165.6392 C.ar    1  UNL1        0.0640
     29 C         143.2788  142.1005  166.9849 C.ar    1  UNL1        0.0175
     30 C         142.4587  142.2604  168.2306 C.ar    1  UNL1        0.0053
     31 C         141.0019  142.6037  168.1305 C.ar    1  UNL1        0.0715
     32 C         140.3652  142.7870  166.7848 C.ar    1  UNL1        0.0053
     33 C         141.1853  142.6271  165.5391 C.ar    1  UNL1        0.0175
     34 C         140.1817  142.7636  169.3762 C.3     1  UNL1        0.4186
     35 F         139.3616  142.9235  170.6219 F       1  UNL1       -0.1659
     36 F         140.7629  144.1308  169.5834 F       1  UNL1       -0.1659
     37 F         139.6006  141.3963  169.1691 F       1  UNL1       -0.1659
@<TRIPOS>BOND
     1     7     8    2
     2     8     9   am
     3     9    13    1
     4    14    13    1
     5    14    15    1
     6    15    16    1
     7    16    17    1
     8    17    18    1
     9    18    19    1
    10    19    20    1
    11     8    10   am
    12    10     1    1
    13     1     2    1
    14     2     3    1
    15     3     4    1
    16     4    22    1
    17    22    23    1
    18    23    24   ar
    19    24    25   ar
    20    25    26   ar
    21    26    28    1
    22    28    29   ar
    23    29    30   ar
    24    30    31   ar
    25    31    34    1
    26    34    35    1
    27    34    36    1
    28    34    37    1
    29    31    32   ar
    30    32    33   ar
    31    26    27   ar
    32     4     5    1
    33     5     6    1
    34    19    14    1
    35     6     1    1
    36    27    23   ar
    37    33    28   ar
    38     9    11    1
    39    20    21    1
    40    10    12    1
@<TRIPOS>MOLECULE
*****
 37 40 0 0 0
SMALL
GASTEIGER

@<TRIPOS>ATOM
      1 C         142.5758  138.8789  158.4891 C.3     1  UNL1        0.0758
      2 C         141.1713  138.9529  157.9674 C.3     1  UNL1        0.0370
      3 C         140.0144  138.7170  158.8924 C.3     1  UNL1        0.0741
      4 N         140.2617  138.4071  160.3391 N.3     1  UNL1       -0.2688
      5 C         141.6661  138.3331  160.8607 C.3     1  UNL1        0.0741
      6 C         142.8232  138.5690  159.9357 C.3     1  UNL1        0.0370
      7 O         144.0136  141.5116  158.5265 O.2     1  UNL1       -0.2528
      8 C         144.4517  140.4311  157.5828 C.2     1  UNL1        0.3007
      9 N         145.6088  140.6671  156.6578 N.am    1  UNL1       -0.2889
     10 N         143.7328  139.1148  157.5641 N.am    1  UNL1       -0.2905
     11 H         145.8963  139.9579  156.0384 H       1  UNL1        0.1510
     12 H         144.0204  138.4056  156.9447 H       1  UNL1        0.1509
     13 C         146.3276  141.9834  156.6765 C.3     1  UNL1        0.0933
     14 C         147.2803  142.3335  155.5720 C.3     1  UNL1        0.0465
     15 C         148.6341  141.6900  155.5171 C.3     1  UNL1        0.0041
     16 C         149.5867  142.0401  154.4126 C.3     1  UNL1        0.0002
     17 C         149.1855  143.0338  153.3630 C.3     1  UNL1        0.0025
     18 C         147.8317  143.6773  153.4179 C.3     1  UNL1        0.0293
     19 C         146.8791  143.3272  154.5223 C.3     1  UNL1        0.1121
     20 O         145.5252  143.9707  154.5772 O.3     1  UNL1       -0.3844
     21 H         145.0393  143.6364  155.3473 H       1  UNL1        0.2103
     22 C         139.1048  138.1712  161.2641 C.3     1  UNL1        0.1007
     23 C         138.8434  139.1208  162.3956 C.ar    1  UNL1        0.0129
     24 C         137.8391  140.2349  162.3975 C.ar    1  UNL1        0.0176
     25 C         137.9155  140.9255  163.7268 C.ar    1  UNL1        0.0799
     26 N         138.9670  140.2382  164.5466 N.ar    1  UNL1       -0.3038
     27 C         139.5405  139.1228  163.7238 C.ar    1  UNL1        0.0772
     28 C         139.3736  140.6023  165.9437 C.ar    1  UNL1        0.0640
     29 C         139.0750  139.6687  167.0791 C.ar    1  UNL1        0.0175
     30 C         139.4816  140.0328  168.4763 C.ar    1  UNL1        0.0053
     31 C         140.1868  141.3306  168.7380 C.ar    1  UNL1        0.0715
     32 C         140.4855  142.2642  167.6026 C.ar    1  UNL1        0.0053
     33 C         140.0789  141.9001  166.2055 C.ar    1  UNL1        0.0175
     34 C         140.5935  141.6947  170.1351 C.3     1  UNL1        0.4186
     35 F         141.0001  142.0588  171.5323 F       1  UNL1       -0.1659
     36 F         141.7238  140.7114  170.0625 F       1  UNL1       -0.1659
     37 F         139.4631  142.6780  170.2078 F       1  UNL1       -0.1659
@<TRIPOS>BOND
     1     7     8    2
     2     8     9   am
     3     9    13    1
     4    14    13    1
     5    14    15    1
     6    15    16    1
     7    16    17    1
     8    17    18    1
     9    18    19    1
    10    19    20    1
    11     8    10   am
    12    10     1    1
    13     1     2    1
    14     2     3    1
    15     3     4    1
    16     4    22    1
    17    22    23    1
    18    23    24   ar
    19    24    25   ar
    20    25    26   ar
    21    26    28    1
    22    28    29   ar
    23    29    30   ar
    24    30    31   ar
    25    31    34    1
    26    34    35    1
    27    34    36    1
    28    34    37    1
    29    31    32   ar
    30    32    33   ar
    31    26    27   ar
    32     4     5    1
    33     5     6    1
    34    19    14    1
    35     6     1    1
    36    27    23   ar
    37    33    28   ar
    38     9    11    1
    39    20    21    1
    40    10    12    1
@<TRIPOS>MOLECULE
*****
 37 40 0 0 0
SMALL
GASTEIGER

@<TRIPOS>ATOM
      1 C         140.4348  145.0790  157.6662 C.3     1  UNL1        0.0758
      2 C         139.7418  146.1863  156.9287 C.3     1  UNL1        0.0370
      3 C         138.8865  145.8733  155.7369 C.3     1  UNL1        0.0741
      4 N         138.7241  144.4530  155.2826 N.3     1  UNL1       -0.2688
      5 C         139.4170  143.3458  156.0200 C.3     1  UNL1        0.0741
      6 C         140.2723  143.6588  157.2119 C.3     1  UNL1        0.0370
      7 O         139.4141  144.5244  160.4321 O.2     1  UNL1       -0.2528
      8 C         140.7798  145.1147  160.2410 C.2     1  UNL1        0.3007
      9 N         141.6351  145.4278  161.4328 N.am    1  UNL1       -0.2889
     10 N         141.2901  145.3921  158.8580 N.am    1  UNL1       -0.2905
     11 H         142.5314  145.8153  161.3074 H       1  UNL1        0.1510
     12 H         142.1864  145.7795  158.7325 H       1  UNL1        0.1509
     13 C         141.1248  145.1505  162.8158 C.3     1  UNL1        0.0933
     14 C         141.9537  144.3476  163.7742 C.3     1  UNL1        0.0465
     15 C         141.2877  143.4219  164.7486 C.3     1  UNL1        0.0041
     16 C         142.1167  142.6191  165.7069 C.3     1  UNL1        0.0002
     17 C         143.6115  142.7421  165.6908 C.3     1  UNL1        0.0025
     18 C         144.2775  143.6678  164.7164 C.3     1  UNL1        0.0293
     19 C         143.4486  144.4705  163.7581 C.3     1  UNL1        0.1121
     20 O         144.1145  145.3963  162.7836 O.3     1  UNL1       -0.3844
     21 H         143.4401  145.8352  162.2419 H       1  UNL1        0.2103
     22 C         137.8688  144.1400  154.0908 C.3     1  UNL1        0.1007
     23 C         136.9991  142.9178  154.0920 C.ar    1  UNL1        0.0129
     24 C         137.1461  141.7302  153.1875 C.ar    1  UNL1        0.0176
     25 C         136.0676  140.7471  153.5344 C.ar    1  UNL1        0.0799
     26 N         135.2540  141.3271  154.6533 N.ar    1  UNL1       -0.3038
     27 C         135.8297  142.6686  154.9978 C.ar    1  UNL1        0.0772
     28 C         134.0722  140.6792  155.3118 C.ar    1  UNL1        0.0640
     29 C         134.2133  139.3248  155.9409 C.ar    1  UNL1        0.0175
     30 C         133.0316  138.6770  156.5994 C.ar    1  UNL1        0.0053
     31 C         131.7087  139.3836  156.6290 C.ar    1  UNL1        0.0715
     32 C         131.5676  140.7380  156.0000 C.ar    1  UNL1        0.0053
     33 C         132.7494  141.3858  155.3414 C.ar    1  UNL1        0.0175
     34 C         130.5270  138.7358  157.2876 C.3     1  UNL1        0.4186
     35 F         129.3452  138.0879  157.9462 F       1  UNL1       -0.1659
     36 F         130.4272  139.8883  158.2423 F       1  UNL1       -0.1659
     37 F         130.6268  137.5832  156.3329 F       1  UNL1       -0.1659
@<TRIPOS>BOND
     1     7     8    2
     2     8     9   am
     3     9    13    1
     4    14    13    1
     5    14    15    1
     6    15    16    1
     7    16    17    1
     8    17    18    1
     9    18    19    1
    10    19    20    1
    11     8    10   am
    12    10     1    1
    13     1     2    1
    14     2     3    1
    15     3     4    1
    16     4    22    1
    17    22    23    1
    18    23    24   ar
    19    24    25   ar
    20    25    26   ar
    21    26    28    1
    22    28    29   ar
    23    29    30   ar
    24    30    31   ar
    25    31    34    1
    26    34    35    1
    27    34    36    1
    28    34    37    1
    29    31    32   ar
    30    32    33   ar
    31    26    27   ar
    32     4     5    1
    33     5     6    1
    34    19    14    1
    35     6     1    1
    36    27    23   ar
    37    33    28   ar
    38     9    11    1
    39    20    21    1
    40    10    12    1
@<TRIPOS>MOLECULE
*****
 37 40 0 0 0
SMALL
GASTEIGER

@<TRIPOS>ATOM
      1 C         138.8178  141.2632  158.5956 C.3     1  UNL1        0.0758
      2 C         140.2194  141.0953  158.0883 C.3     1  UNL1        0.0370
      3 C         141.3222  141.9535  158.6336 C.3     1  UNL1        0.0741
      4 N         141.0235  142.9796  159.6861 N.3     1  UNL1       -0.2688
      5 C         139.6220  143.1475  160.1934 C.3     1  UNL1        0.0741
      6 C         138.5191  142.2894  159.6482 C.3     1  UNL1        0.0370
      7 O         136.8388  142.4159  156.6580 O.2     1  UNL1       -0.2528
      8 C         136.7255  140.9814  157.0816 C.2     1  UNL1        0.3007
      9 N         135.6226  140.1233  156.5363 N.am    1  UNL1       -0.2889
     10 N         137.7150  140.4051  158.0504 N.am    1  UNL1       -0.2905
     11 H         135.5482  139.1818  156.8143 H       1  UNL1        0.1510
     12 H         137.6406  139.4636  158.3284 H       1  UNL1        0.1509
     13 C         134.6331  140.6996  155.5675 C.3     1  UNL1        0.0933
     14 C         133.1626  140.5096  155.7951 C.3     1  UNL1        0.0465
     15 C         132.1918  141.5598  155.3429 C.3     1  UNL1        0.0041
     16 C         130.7214  141.3698  155.5706 C.3     1  UNL1        0.0002
     17 C         130.2219  140.1295  156.2503 C.3     1  UNL1        0.0025
     18 C         131.1926  139.0792  156.7025 C.3     1  UNL1        0.0293
     19 C         132.6630  139.2693  156.4749 C.3     1  UNL1        0.1121
     20 O         133.6339  138.2190  156.9270 O.3     1  UNL1       -0.3844
     21 H         134.5366  138.4961  156.7051 H       1  UNL1        0.2103
     22 C         142.1263  143.8377  160.2313 C.3     1  UNL1        0.1007
     23 C         142.6506  143.5954  161.6157 C.ar    1  UNL1        0.0129
     24 C         144.0954  143.5567  162.0172 C.ar    1  UNL1        0.0176
     25 C         144.1598  143.2866  163.4912 C.ar    1  UNL1        0.0799
     26 N         142.7548  143.1583  164.0009 N.ar    1  UNL1       -0.3038
     27 C         141.8221  143.3492  162.8417 C.ar    1  UNL1        0.0772
     28 C         142.3531  142.8868  165.4203 C.ar    1  UNL1        0.0640
     29 C         143.3921  142.5111  166.4350 C.ar    1  UNL1        0.0175
     30 C         142.9904  142.2397  167.8545 C.ar    1  UNL1        0.0053
     31 C         141.5498  142.3439  168.2593 C.ar    1  UNL1        0.0715
     32 C         140.5109  142.7196  167.2447 C.ar    1  UNL1        0.0053
     33 C         140.9126  142.9911  165.8252 C.ar    1  UNL1        0.0175
     34 C         141.1481  142.0725  169.6788 C.3     1  UNL1        0.4186
     35 F         140.7464  141.8010  171.0982 F       1  UNL1       -0.1659
     36 F         140.1024  143.1440  169.5878 F       1  UNL1       -0.1659
     37 F         142.1938  141.0010  169.7698 F       1  UNL1       -0.1659
@<TRIPOS>BOND
     1     7     8    2
     2     8     9   am
     3     9    13    1
     4    14    13    1
     5    14    15    1
     6    15    16    1
     7    16    17    1
     8    17    18    1
     9    18    19    1
    10    19    20    1
    11     8    10   am
    12    10     1    1
    13     1     2    1
    14     2     3    1
    15     3     4    1
    16     4    22    1
    17    22    23    1
    18    23    24   ar
    19    24    25   ar
    20    25    26   ar
    21    26    28    1
    22    28    29   ar
    23    29    30   ar
    24    30    31   ar
    25    31    34    1
    26    34    35    1
    27    34    36    1
    28    34    37    1
    29    31    32   ar
    30    32    33   ar
    31    26    27   ar
    32     4     5    1
    33     5     6    1
    34    19    14    1
    35     6     1    1
    36    27    23   ar
    37    33    28   ar
    38     9    11    1
    39    20    21    1
    40    10    12    1
@<TRIPOS>MOLECULE
*****
 37 40 0 0 0
SMALL
GASTEIGER

@<TRIPOS>ATOM
      1 C         138.6280  141.7266  158.2446 C.3     1  UNL1        0.0758
      2 C         138.3264  141.1278  159.5864 C.3     1  UNL1        0.0370
      3 C         139.4244  140.4964  160.3899 C.3     1  UNL1        0.0741
      4 N         140.8241  140.4638  159.8515 N.3     1  UNL1       -0.2688
      5 C         141.1257  141.0626  158.5097 C.3     1  UNL1        0.0741
      6 C         140.0276  141.6940  157.7062 C.3     1  UNL1        0.0370
      7 O         136.8677  140.0239  156.5119 O.2     1  UNL1       -0.2528
      8 C         136.6498  141.5067  156.5748 C.2     1  UNL1        0.3007
      9 N         135.5516  142.1381  155.7713 N.am    1  UNL1       -0.2889
     10 N         137.5299  142.3580  157.4411 N.am    1  UNL1       -0.2905
     11 H         135.4086  143.1113  155.8126 H       1  UNL1        0.1510
     12 H         137.3868  143.3312  157.4824 H       1  UNL1        0.1509
     13 C         134.6715  141.2867  154.9050 C.3     1  UNL1        0.0933
     14 C         133.3895  140.7331  155.4528 C.3     1  UNL1        0.0465
     15 C         132.1373  141.5578  155.4094 C.3     1  UNL1        0.0041
     16 C         130.8554  141.0042  155.9572 C.3     1  UNL1        0.0002
     17 C         130.8257  139.6259  156.5485 C.3     1  UNL1        0.0025
     18 C         132.0779  138.8013  156.5919 C.3     1  UNL1        0.0293
     19 C         133.3598  139.3549  156.0441 C.3     1  UNL1        0.1121
     20 O         134.6121  138.5302  156.0875 O.3     1  UNL1       -0.3844
     21 H         135.3437  139.0325  155.6959 H       1  UNL1        0.2103
     22 C         141.9222  139.8324  160.6549 C.3     1  UNL1        0.1007
     23 C         141.6237  139.2476  162.0036 C.ar    1  UNL1        0.0129
     24 C         141.2956  137.8120  162.2891 C.ar    1  UNL1        0.0176
     25 C         141.0700  137.6729  163.7655 C.ar    1  UNL1        0.0799
     26 N         141.2586  139.0225  164.3925 N.ar    1  UNL1       -0.3038
     27 C         141.6008  139.9957  163.3035 C.ar    1  UNL1        0.0772
     28 C         141.1279  139.3427  165.8521 C.ar    1  UNL1        0.0640
     29 C         142.3425  139.3392  166.7323 C.ar    1  UNL1        0.0175
     30 C         142.2119  139.6594  168.1918 C.ar    1  UNL1        0.0053
     31 C         140.8666  139.9830  168.7712 C.ar    1  UNL1        0.0715
     32 C         139.6521  139.9865  167.8910 C.ar    1  UNL1        0.0053
     33 C         139.7827  139.6663  166.4314 C.ar    1  UNL1        0.0175
     34 C         140.7360  140.3032  170.2308 C.3     1  UNL1        0.4186
     35 F         140.6053  140.6233  171.6904 F       1  UNL1       -0.1659
     36 F         139.2434  140.2053  170.1187 F       1  UNL1       -0.1659
     37 F         142.2286  140.4011  170.3429 F       1  UNL1       -0.1659
@<TRIPOS>BOND
     1     7     8    2
     2     8     9   am
     3     9    13    1
     4    14    13    1
     5    14    15    1
     6    15    16    1
     7    16    17    1
     8    17    18    1
     9    18    19    1
    10    19    20    1
    11     8    10   am
    12    10     1    1
    13     1     2    1
    14     2     3    1
    15     3     4    1
    16     4    22    1
    17    22    23    1
    18    23    24   ar
    19    24    25   ar
    20    25    26   ar
    21    26    28    1
    22    28    29   ar
    23    29    30   ar
    24    30    31   ar
    25    31    34    1
    26    34    35    1
    27    34    36    1
    28    34    37    1
    29    31    32   ar
    30    32    33   ar
    31    26    27   ar
    32     4     5    1
    33     5     6    1
    34    19    14    1
    35     6     1    1
    36    27    23   ar
    37    33    28   ar
    38     9    11    1
    39    20    21    1
    40    10    12    1
@<TRIPOS>MOLECULE
*****
 37 40 0 0 0
SMALL
GASTEIGER

@<TRIPOS>ATOM
      1 C         142.1962  138.3403  160.3163 C.3     1  UNL1        0.0758
      2 C         140.7701  138.5513  159.9016 C.3     1  UNL1        0.0370
      3 C         139.6624  138.3411  160.8909 C.3     1  UNL1        0.0741
      4 N         139.9806  137.9199  162.2949 N.3     1  UNL1       -0.2688
      5 C         141.4066  137.7088  162.7097 C.3     1  UNL1        0.0741
      6 C         142.5144  137.9190  161.7204 C.3     1  UNL1        0.0370
      7 O         142.7568  141.0892  159.2540 O.2     1  UNL1       -0.2528
      8 C         143.5842  139.9250  158.7959 C.2     1  UNL1        0.3007
      9 N         144.6920  140.1352  157.8066 N.am    1  UNL1       -0.2889
     10 N         143.3039  138.5505  159.3271 N.am    1  UNL1       -0.2905
     11 H         145.2350  139.3711  157.5059 H       1  UNL1        0.1510
     12 H         143.8469  137.7863  159.0264 H       1  UNL1        0.1509
     13 C         144.9723  141.5097  157.2754 C.3     1  UNL1        0.0933
     14 C         145.8500  141.6840  156.0715 C.3     1  UNL1        0.0465
     15 C         145.5549  140.9246  154.8120 C.3     1  UNL1        0.0041
     16 C         146.4326  141.0989  153.6082 C.3     1  UNL1        0.0002
     17 C         147.6053  142.0325  153.6638 C.3     1  UNL1        0.0025
     18 C         147.9004  142.7918  154.9233 C.3     1  UNL1        0.0293
     19 C         147.0227  142.6176  156.1271 C.3     1  UNL1        0.1121
     20 O         147.3178  143.3769  157.3867 O.3     1  UNL1       -0.3844
     21 H         146.6596  143.1506  158.0623 H       1  UNL1        0.2103
     22 C         138.8729  137.7097  163.2842 C.3     1  UNL1        0.1007
     23 C         138.9991  138.2505  164.6776 C.ar    1  UNL1        0.0129
     24 C         138.0772  137.9575  165.8240 C.ar    1  UNL1        0.0176
     25 C         138.5777  138.7051  167.0242 C.ar    1  UNL1        0.0799
     26 N         139.8090  139.4603  166.6196 N.ar    1  UNL1       -0.3038
     27 C         140.0694  139.1793  165.1693 C.ar    1  UNL1        0.0772
     28 C         140.6349  140.3416  167.5090 C.ar    1  UNL1        0.0640
     29 C         141.7695  139.7585  168.2981 C.ar    1  UNL1        0.0175
     30 C         142.5953  140.6399  169.1875 C.ar    1  UNL1        0.0053
     31 C         142.2866  142.1043  169.2880 C.ar    1  UNL1        0.0715
     32 C         141.1519  142.6874  168.4989 C.ar    1  UNL1        0.0053
     33 C         140.3261  141.8061  167.6094 C.ar    1  UNL1        0.0175
     34 C         143.1124  142.9857  170.1774 C.3     1  UNL1        0.4186
     35 F         143.9383  143.8670  171.0669 F       1  UNL1       -0.1659
     36 F         141.9465  143.9156  170.3385 F       1  UNL1       -0.1659
     37 F         144.2783  142.0558  170.0163 F       1  UNL1       -0.1659
@<TRIPOS>BOND
     1     7     8    2
     2     8     9   am
     3     9    13    1
     4    14    13    1
     5    14    15    1
     6    15    16    1
     7    16    17    1
     8    17    18    1
     9    18    19    1
    10    19    20    1
    11     8    10   am
    12    10     1    1
    13     1     2    1
    14     2     3    1
    15     3     4    1
    16     4    22    1
    17    22    23    1
    18    23    24   ar
    19    24    25   ar
    20    25    26   ar
    21    26    28    1
    22    28    29   ar
    23    29    30   ar
    24    30    31   ar
    25    31    34    1
    26    34    35    1
    27    34    36    1
    28    34    37    1
    29    31    32   ar
    30    32    33   ar
    31    26    27   ar
    32     4     5    1
    33     5     6    1
    34    19    14    1
    35     6     1    1
    36    27    23   ar
    37    33    28   ar
    38     9    11    1
    39    20    21    1
    40    10    12    1
@<TRIPOS>MOLECULE
*****
 37 40 0 0 0
SMALL
GASTEIGER

@<TRIPOS>ATOM
      1 C         141.2167  144.1044  159.0089 C.3     1  UNL1        0.0758
      2 C         142.3950  143.2699  158.6025 C.3     1  UNL1        0.0370
      3 C         143.5024  143.0093  159.5801 C.3     1  UNL1        0.0741
      4 N         143.4315  143.5832  160.9642 N.3     1  UNL1       -0.2688
      5 C         142.2532  144.4177  161.3706 C.3     1  UNL1        0.0741
      6 C         141.1457  144.6783  160.3930 C.3     1  UNL1        0.0370
      7 O         141.5977  146.1097  156.8105 O.2     1  UNL1       -0.2528
      8 C         140.2998  145.3676  156.9321 C.2     1  UNL1        0.3007
      9 N         139.1924  145.6283  155.9544 N.am    1  UNL1       -0.2889
     10 N         140.1093  144.3650  158.0313 N.am    1  UNL1       -0.2905
     11 H         138.3405  145.1412  156.0342 H       1  UNL1        0.1510
     12 H         139.2574  143.8779  158.1111 H       1  UNL1        0.1509
     13 C         139.3829  146.6309  154.8552 C.3     1  UNL1        0.0933
     14 C         139.1606  148.0899  155.1240 C.3     1  UNL1        0.0465
     15 C         138.6065  148.5331  156.4456 C.3     1  UNL1        0.0041
     16 C         138.3842  149.9919  156.7143 C.3     1  UNL1        0.0002
     17 C         138.7160  151.0076  155.6615 C.3     1  UNL1        0.0025
     18 C         139.2700  150.5644  154.3399 C.3     1  UNL1        0.0293
     19 C         139.4923  149.1055  154.0712 C.3     1  UNL1        0.1121
     20 O         140.0463  148.6622  152.7496 O.3     1  UNL1       -0.3844
     21 H         140.1272  147.6956  152.7407 H       1  UNL1        0.2103
     22 C         144.5389  143.3226  161.9418 C.3     1  UNL1        0.1007
     23 C         144.3533  142.3100  163.0329 C.ar    1  UNL1        0.0129
     24 C         145.0917  141.0110  163.1650 C.ar    1  UNL1        0.0176
     25 C         144.5915  140.3169  164.3971 C.ar    1  UNL1        0.0799
     26 N         143.5441  141.1869  165.0264 N.ar    1  UNL1       -0.3038
     27 C         143.3969  142.4187  164.1833 C.ar    1  UNL1        0.0772
     28 C         142.7783  140.8791  166.2789 C.ar    1  UNL1        0.0640
     29 C         143.0941  139.6420  167.0662 C.ar    1  UNL1        0.0175
     30 C         142.3284  139.3341  168.3187 C.ar    1  UNL1        0.0053
     31 C         141.2468  140.2635  168.7840 C.ar    1  UNL1        0.0715
     32 C         140.9309  141.5006  167.9968 C.ar    1  UNL1        0.0053
     33 C         141.6967  141.8084  166.7443 C.ar    1  UNL1        0.0175
     34 C         140.4810  139.9557  170.0365 C.3     1  UNL1        0.4186
     35 F         139.7152  139.6479  171.2890 F       1  UNL1       -0.1659
     36 F         141.4621  138.8711  170.3698 F       1  UNL1       -0.1659
     37 F         139.4999  141.0402  169.7032 F       1  UNL1       -0.1659
@<TRIPOS>BOND
     1     7     8    2
     2     8     9   am
     3     9    13    1
     4    14    13    1
     5    14    15    1
     6    15    16    1
     7    16    17    1
     8    17    18    1
     9    18    19    1
    10    19    20    1
    11     8    10   am
    12    10     1    1
    13     1     2    1
    14     2     3    1
    15     3     4    1
    16     4    22    1
    17    22    23    1
    18    23    24   ar
    19    24    25   ar
    20    25    26   ar
    21    26    28    1
    22    28    29   ar
    23    29    30   ar
    24    30    31   ar
    25    31    34    1
    26    34    35    1
    27    34    36    1
    28    34    37    1
    29    31    32   ar
    30    32    33   ar
    31    26    27   ar
    32     4     5    1
    33     5     6    1
    34    19    14    1
    35     6     1    1
    36    27    23   ar
    37    33    28   ar
    38     9    11    1
    39    20    21    1
    40    10    12    1
@<TRIPOS>MOLECULE
*****
 37 40 0 0 0
SMALL
GASTEIGER

@<TRIPOS>ATOM
      1 C         137.9876  139.4800  155.2973 C.3     1  UNL1        0.0758
      2 C         138.4336  138.0506  155.3879 C.3     1  UNL1        0.0370
      3 C         139.7396  137.7125  156.0437 C.3     1  UNL1        0.0741
      4 N         140.5997  138.8038  156.6089 N.3     1  UNL1       -0.2688
      5 C         140.1538  140.2331  156.5183 C.3     1  UNL1        0.0741
      6 C         138.8477  140.5712  155.8625 C.3     1  UNL1        0.0370
      7 O         135.7213  140.5624  156.9380 O.2     1  UNL1       -0.2528
      8 C         135.5485  140.3593  155.4619 C.2     1  UNL1        0.3007
      9 N         134.2424  140.6974  154.8061 N.am    1  UNL1       -0.2889
     10 N         136.6817  139.8181  154.6416 N.am    1  UNL1       -0.2905
     11 H         134.1290  140.5641  153.8373 H       1  UNL1        0.1510
     12 H         136.5682  139.6848  153.6727 H       1  UNL1        0.1509
     13 C         133.1093  141.2386  155.6265 C.3     1  UNL1        0.0933
     14 C         131.9293  140.3679  155.9423 C.3     1  UNL1        0.0465
     15 C         130.5378  140.8764  155.7073 C.3     1  UNL1        0.0041
     16 C         129.3579  140.0058  156.0231 C.3     1  UNL1        0.0002
     17 C         129.5694  138.6267  156.5739 C.3     1  UNL1        0.0025
     18 C         130.9609  138.1183  156.8089 C.3     1  UNL1        0.0293
     19 C         132.1408  138.9889  156.4931 C.3     1  UNL1        0.1121
     20 O         133.5323  138.4804  156.7281 O.3     1  UNL1       -0.3844
     21 H         134.1731  139.1627  156.4737 H       1  UNL1        0.2103
     22 C         141.9056  138.4657  157.2646 C.3     1  UNL1        0.1007
     23 C         141.9670  138.2527  158.7482 C.ar    1  UNL1        0.0129
     24 C         143.1704  137.8097  159.5263 C.ar    1  UNL1        0.0176
     25 C         142.7829  137.7286  160.9731 C.ar    1  UNL1        0.0799
     26 N         141.3399  138.1215  161.0892 N.ar    1  UNL1       -0.3038
     27 C         140.8357  138.4454  159.7141 C.ar    1  UNL1        0.0772
     28 C         140.5413  138.1801  162.3576 C.ar    1  UNL1        0.0640
     29 C         139.2545  138.9498  162.3988 C.ar    1  UNL1        0.0175
     30 C         138.4560  139.0084  163.6672 C.ar    1  UNL1        0.0053
     31 C         138.9443  138.2974  164.8944 C.ar    1  UNL1        0.0715
     32 C         140.2311  137.5278  164.8533 C.ar    1  UNL1        0.0053
     33 C         141.0297  137.4691  163.5849 C.ar    1  UNL1        0.0175
     34 C         138.1458  138.3561  166.1629 C.3     1  UNL1        0.4186
     35 F         137.3472  138.4147  167.4313 F       1  UNL1       -0.1659
     36 F         138.0423  136.8597  166.1669 F       1  UNL1       -0.1659
     37 F         138.2492  139.8525  166.1588 F       1  UNL1       -0.1659
@<TRIPOS>BOND
     1     7     8    2
     2     8     9   am
     3     9    13    1
     4    14    13    1
     5    14    15    1
     6    15    16    1
     7    16    17    1
     8    17    18    1
     9    18    19    1
    10    19    20    1
    11     8    10   am
    12    10     1    1
    13     1     2    1
    14     2     3    1
    15     3     4    1
    16     4    22    1
    17    22    23    1
    18    23    24   ar
    19    24    25   ar
    20    25    26   ar
    21    26    28    1
    22    28    29   ar
    23    29    30   ar
    24    30    31   ar
    25    31    34    1
    26    34    35    1
    27    34    36    1
    28    34    37    1
    29    31    32   ar
    30    32    33   ar
    31    26    27   ar
    32     4     5    1
    33     5     6    1
    34    19    14    1
    35     6     1    1
    36    27    23   ar
    37    33    28   ar
    38     9    11    1
    39    20    21    1
    40    10    12    1
