@<TRIPOS>MOLECULE
*****
 31 34 0 0 0
SMALL
GASTEIGER

@<TRIPOS>ATOM
      1 N         141.3139  140.5464  167.1716 N.ar    1  UNL1       -0.2915
      2 C         142.4782  139.6932  166.7636 C.ar    1  UNL1        0.1658
      3 N         143.0467  139.0627  168.0002 N.ar    1  UNL1       -0.2282
      4 C         142.2338  139.5261  169.1725 C.ar    1  UNL1        0.0885
      5 C         141.1628  140.4431  168.6604 C.ar    1  UNL1        0.0573
      6 C         137.8663  143.8007  163.4942 C.3     1  UNL1        0.0521
      7 C         138.7282  142.9871  164.4136 C.ar    1  UNL1        0.0595
      8 C         138.3480  141.5741  164.7432 C.ar    1  UNL1        0.0162
      9 C         139.2099  140.7605  165.6625 C.ar    1  UNL1        0.0203
     10 C         140.4520  141.3600  166.2523 C.ar    1  UNL1        0.0842
     11 C         140.8322  142.7730  165.9227 C.ar    1  UNL1        0.1159
     12 N         139.9702  143.5866  165.0033 N.ar    1  UNL1       -0.2466
     13 C         142.9851  139.5039  165.3646 C.ar    1  UNL1        0.1261
     14 N         144.1480  140.3134  164.8722 N.ar    1  UNL1       -0.2399
     15 C         144.6548  140.1240  163.4732 C.ar    1  UNL1        0.0990
     16 C         143.9989  139.1252  162.5666 C.ar    1  UNL1        0.0215
     17 C         142.8360  138.3157  163.0590 C.ar    1  UNL1        0.0146
     18 C         142.3292  138.5050  164.4580 C.ar    1  UNL1        0.0783
     19 CL        141.1663  137.6955  164.9504 Cl      1  UNL1       -0.0806
     20 C         140.1233  141.1353  169.4913 C.3     1  UNL1        0.0400
     21 C         138.9084  140.3850  169.9505 C.3     1  UNL1        0.0063
     22 C         140.2987  142.5780  169.8629 C.3     1  UNL1        0.0063
     23 C         142.4532  139.1404  170.6054 C.3     1  UNL1        0.1163
     24 N         143.8466  139.0554  171.1543 N.3     1  UNL1       -0.2934
     25 H         143.8517  139.5824  172.0276 H       1  UNL1        0.1236
     26 C         144.4547  137.7171  171.4527 C.3     1  UNL1        0.0571
     27 C         144.0064  136.4001  170.8918 C.3     1  UNL1        0.0186
     28 C         144.8925  135.3298  171.4569 C.3     1  UNL1        0.0367
     29 C         145.8885  135.9854  172.3671 C.3     1  UNL1        0.1624
     30 F         146.9659  135.2880  173.1435 F       1  UNL1       -0.2372
     31 C         145.6178  137.4608  172.3645 C.3     1  UNL1        0.0510
@<TRIPOS>BOND
     1     6     7    1
     2     7     8   ar
     3     8     9   ar
     4     9    10   ar
     5    10     1    1
     6     1     2   ar
     7     2    13    1
     8    13    14   ar
     9    14    15   ar
    10    15    16   ar
    11    16    17   ar
    12    17    18   ar
    13    18    19    1
    14     2     3   ar
    15     3     4   ar
    16     4    23    1
    17    23    24    1
    18    26    24    1
    19    26    27    1
    20    27    28    1
    21    28    29    1
    22    29    30    1
    23    29    31    1
    24     4     5   ar
    25     5    20    1
    26    20    21    1
    27    20    22    1
    28    10    11   ar
    29    11    12   ar
    30    12     7   ar
    31     5     1   ar
    32    18    13   ar
    33    31    26    1
    34    24    25    1
@<TRIPOS>MOLECULE
*****
 31 34 0 0 0
SMALL
GASTEIGER

@<TRIPOS>ATOM
      1 N         139.6658  140.7830  165.1762 N.ar    1  UNL1       -0.2915
      2 C         140.3909  141.9688  165.7402 C.ar    1  UNL1        0.1658
      3 N         140.4394  141.8163  167.2316 N.ar    1  UNL1       -0.2282
      4 C         139.7442  140.5362  167.5895 C.ar    1  UNL1        0.0885
      5 C         139.2661  139.8976  166.3192 C.ar    1  UNL1        0.0573
      6 C         138.5585  139.7608  159.3685 C.3     1  UNL1        0.0521
      7 C         138.8353  140.0163  160.8205 C.ar    1  UNL1        0.0595
      8 C         137.7256  140.4538  161.7299 C.ar    1  UNL1        0.0162
      9 C         138.0024  140.7094  163.1818 C.ar    1  UNL1        0.0203
     10 C         139.3890  140.5274  163.7243 C.ar    1  UNL1        0.0842
     11 C         140.4987  140.0900  162.8149 C.ar    1  UNL1        0.1159
     12 N         140.2219  139.8344  161.3630 N.ar    1  UNL1       -0.2466
     13 C         140.9665  143.1073  164.9512 C.ar    1  UNL1        0.1261
     14 N         142.4393  143.1564  164.6705 N.ar    1  UNL1       -0.2399
     15 C         143.0149  144.2949  163.8815 C.ar    1  UNL1        0.0990
     16 C         142.1178  145.3843  163.3732 C.ar    1  UNL1        0.0215
     17 C         140.6451  145.3353  163.6539 C.ar    1  UNL1        0.0146
     18 C         140.0695  144.1968  164.4429 C.ar    1  UNL1        0.0783
     19 CL        138.5968  144.1478  164.7236 Cl      1  UNL1       -0.0806
     20 C         138.5195  138.6011  166.2108 C.3     1  UNL1        0.0400
     21 C         138.9160  137.5915  165.1749 C.3     1  UNL1        0.0063
     22 C         137.3761  138.3143  167.1386 C.3     1  UNL1        0.0063
     23 C         139.5595  139.9905  168.9744 C.3     1  UNL1        0.1163
     24 N         140.7403  139.8499  169.8888 N.3     1  UNL1       -0.2934
     25 H         141.2881  139.0619  169.5433 H       1  UNL1        0.1236
     26 C         141.6927  140.9951  170.0652 C.3     1  UNL1        0.0571
     27 C         141.3629  142.3330  170.6578 C.3     1  UNL1        0.0186
     28 C         142.6086  143.1683  170.6388 C.3     1  UNL1        0.0367
     29 C         143.7085  142.3467  170.0344 C.3     1  UNL1        0.1624
     30 F         145.1255  142.7902  169.8219 F       1  UNL1       -0.2372
     31 C         143.1424  141.0035  169.6799 C.3     1  UNL1        0.0510
@<TRIPOS>BOND
     1     6     7    1
     2     7     8   ar
     3     8     9   ar
     4     9    10   ar
     5    10     1    1
     6     1     2   ar
     7     2    13    1
     8    13    14   ar
     9    14    15   ar
    10    15    16   ar
    11    16    17   ar
    12    17    18   ar
    13    18    19    1
    14     2     3   ar
    15     3     4   ar
    16     4    23    1
    17    23    24    1
    18    26    24    1
    19    26    27    1
    20    27    28    1
    21    28    29    1
    22    29    30    1
    23    29    31    1
    24     4     5   ar
    25     5    20    1
    26    20    21    1
    27    20    22    1
    28    10    11   ar
    29    11    12   ar
    30    12     7   ar
    31     5     1   ar
    32    18    13   ar
    33    31    26    1
    34    24    25    1
@<TRIPOS>MOLECULE
*****
 31 34 0 0 0
SMALL
GASTEIGER

@<TRIPOS>ATOM
      1 N         140.4567  140.8610  164.9938 N.ar    1  UNL1       -0.2915
      2 C         140.6983  141.7718  163.8268 C.ar    1  UNL1        0.1658
      3 N         139.7700  141.3648  162.7211 N.ar    1  UNL1       -0.2282
      4 C         138.9547  140.2024  163.2047 C.ar    1  UNL1        0.0885
      5 C         139.3791  139.8910  164.6093 C.ar    1  UNL1        0.0573
      6 C         143.3014  141.0620  170.2728 C.3     1  UNL1        0.0521
      7 C         142.5902  141.0117  168.9530 C.ar    1  UNL1        0.0595
      8 C         141.6003  142.0797  168.5933 C.ar    1  UNL1        0.0162
      9 C         140.8892  142.0295  167.2736 C.ar    1  UNL1        0.0203
     10 C         141.1679  140.9112  166.3136 C.ar    1  UNL1        0.0842
     11 C         142.1578  139.8432  166.6732 C.ar    1  UNL1        0.1159
     12 N         142.8690  139.8935  167.9930 N.ar    1  UNL1       -0.2466
     13 C         141.6935  142.8929  163.7746 C.ar    1  UNL1        0.1261
     14 N         143.1446  142.5972  163.5356 N.ar    1  UNL1       -0.2399
     15 C         144.1398  143.7183  163.4835 C.ar    1  UNL1        0.0990
     16 C         143.6840  145.1351  163.6703 C.ar    1  UNL1        0.0215
     17 C         142.2330  145.4308  163.9093 C.ar    1  UNL1        0.0146
     18 C         141.2378  144.3097  163.9614 C.ar    1  UNL1        0.0783
     19 CL        139.7868  144.6055  164.2004 Cl      1  UNL1       -0.0806
     20 C         138.8234  138.8009  165.4771 C.3     1  UNL1        0.0400
     21 C         138.0245  139.1482  166.6982 C.3     1  UNL1        0.0063
     22 C         139.0666  137.3635  165.1237 C.3     1  UNL1        0.0063
     23 C         137.9001  139.4784  162.4213 C.3     1  UNL1        0.1163
     24 N         138.2860  138.3598  161.4995 N.3     1  UNL1       -0.2934
     25 H         137.6704  138.4209  160.6885 H       1  UNL1        0.1236
     26 C         139.6878  138.2713  160.9735 C.3     1  UNL1        0.0571
     27 C         140.1283  138.6001  159.5778 C.3     1  UNL1        0.0186
     28 C         141.6081  138.3705  159.4924 C.3     1  UNL1        0.0367
     29 C         142.0824  137.8997  160.8354 C.3     1  UNL1        0.1624
     30 F         143.4952  137.5514  161.1992 F       1  UNL1       -0.2372
     31 C         140.8955  137.8384  161.7507 C.3     1  UNL1        0.0510
@<TRIPOS>BOND
     1     6     7    1
     2     7     8   ar
     3     8     9   ar
     4     9    10   ar
     5    10     1    1
     6     1     2   ar
     7     2    13    1
     8    13    14   ar
     9    14    15   ar
    10    15    16   ar
    11    16    17   ar
    12    17    18   ar
    13    18    19    1
    14     2     3   ar
    15     3     4   ar
    16     4    23    1
    17    23    24    1
    18    26    24    1
    19    26    27    1
    20    27    28    1
    21    28    29    1
    22    29    30    1
    23    29    31    1
    24     4     5   ar
    25     5    20    1
    26    20    21    1
    27    20    22    1
    28    10    11   ar
    29    11    12   ar
    30    12     7   ar
    31     5     1   ar
    32    18    13   ar
    33    31    26    1
    34    24    25    1
@<TRIPOS>MOLECULE
*****
 31 34 0 0 0
SMALL
GASTEIGER

@<TRIPOS>ATOM
      1 N         141.3756  140.6094  160.9215 N.ar    1  UNL1       -0.2915
      2 C         141.6379  140.8129  162.3843 C.ar    1  UNL1        0.1658
      3 N         140.3487  140.5987  163.1206 N.ar    1  UNL1       -0.2282
      4 C         139.2896  140.2628  162.1129 C.ar    1  UNL1        0.0885
      5 C         139.9243  140.2694  160.7538 C.ar    1  UNL1        0.0573
      6 C         145.4213  141.0736  156.5150 C.3     1  UNL1        0.0521
      7 C         144.4098  140.9576  157.6166 C.ar    1  UNL1        0.0595
      8 C         143.6541  142.1707  158.0718 C.ar    1  UNL1        0.0162
      9 C         142.6427  142.0546  159.1734 C.ar    1  UNL1        0.0203
     10 C         142.3870  140.7254  159.8199 C.ar    1  UNL1        0.0842
     11 C         143.1428  139.5124  159.3647 C.ar    1  UNL1        0.1159
     12 N         144.1542  139.6284  158.2631 N.ar    1  UNL1       -0.2466
     13 C         142.9577  141.1682  163.0023 C.ar    1  UNL1        0.1261
     14 N         143.2629  142.5950  163.3506 N.ar    1  UNL1       -0.2399
     15 C         144.5827  142.9503  163.9687 C.ar    1  UNL1        0.0990
     16 C         145.5973  141.8789  164.2384 C.ar    1  UNL1        0.0215
     17 C         145.2920  140.4522  163.8901 C.ar    1  UNL1        0.0146
     18 C         143.9722  140.0969  163.2720 C.ar    1  UNL1        0.0783
     19 CL        143.6671  138.6701  162.9237 Cl      1  UNL1       -0.0806
     20 C         139.2296  139.9859  159.4549 C.3     1  UNL1        0.0400
     21 C         139.4755  138.6905  158.7400 C.3     1  UNL1        0.0063
     22 C         138.2888  140.9979  158.8710 C.3     1  UNL1        0.0063
     23 C         137.8489  139.9715  162.4117 C.3     1  UNL1        0.1163
     24 N         136.9429  141.0712  162.8807 N.3     1  UNL1       -0.2934
     25 H         136.4798  140.7319  163.7237 H       1  UNL1        0.1236
     26 C         137.5096  142.4201  163.2110 C.3     1  UNL1        0.0571
     27 C         137.9550  143.4558  162.2216 C.3     1  UNL1        0.0186
     28 C         138.4511  144.6460  162.9879 C.3     1  UNL1        0.0367
     29 C         138.3124  144.3459  164.4511 C.3     1  UNL1        0.1624
     30 F         138.6894  145.2608  165.5783 F       1  UNL1       -0.2372
     31 C         137.7306  142.9702  164.5889 C.3     1  UNL1        0.0510
@<TRIPOS>BOND
     1     6     7    1
     2     7     8   ar
     3     8     9   ar
     4     9    10   ar
     5    10     1    1
     6     1     2   ar
     7     2    13    1
     8    13    14   ar
     9    14    15   ar
    10    15    16   ar
    11    16    17   ar
    12    17    18   ar
    13    18    19    1
    14     2     3   ar
    15     3     4   ar
    16     4    23    1
    17    23    24    1
    18    26    24    1
    19    26    27    1
    20    27    28    1
    21    28    29    1
    22    29    30    1
    23    29    31    1
    24     4     5   ar
    25     5    20    1
    26    20    21    1
    27    20    22    1
    28    10    11   ar
    29    11    12   ar
    30    12     7   ar
    31     5     1   ar
    32    18    13   ar
    33    31    26    1
    34    24    25    1
@<TRIPOS>MOLECULE
*****
 31 34 0 0 0
SMALL
GASTEIGER

@<TRIPOS>ATOM
      1 N         142.2813  141.3137  163.3621 N.ar    1  UNL1       -0.2915
      2 C         141.0902  140.5067  163.7863 C.ar    1  UNL1        0.1658
      3 N         141.2281  140.2111  165.2505 N.ar    1  UNL1       -0.2282
      4 C         142.5045  140.8355  165.7311 C.ar    1  UNL1        0.0885
      5 C         143.1554  141.5169  164.5640 C.ar    1  UNL1        0.0573
      6 C         143.3599  143.3681  157.8289 C.3     1  UNL1        0.0521
      7 C         143.0903  142.8545  159.2122 C.ar    1  UNL1        0.0595
      8 C         143.2289  141.3907  159.5090 C.ar    1  UNL1        0.0162
      9 C         142.9592  140.8771  160.8923 C.ar    1  UNL1        0.0203
     10 C         142.5509  141.8273  161.9788 C.ar    1  UNL1        0.0842
     11 C         142.4123  143.2910  161.6820 C.ar    1  UNL1        0.1159
     12 N         142.6820  143.8046  160.2987 N.ar    1  UNL1       -0.2466
     13 C         139.9595  140.0716  162.9018 C.ar    1  UNL1        0.1261
     14 N         138.8452  141.0247  162.5855 N.ar    1  UNL1       -0.2399
     15 C         137.7145  140.5896  161.7009 C.ar    1  UNL1        0.0990
     16 C         137.6983  139.2015  161.1327 C.ar    1  UNL1        0.0215
     17 C         138.8126  138.2485  161.4489 C.ar    1  UNL1        0.0146
     18 C         139.9432  138.6836  162.3335 C.ar    1  UNL1        0.0783
     19 CL        141.0575  137.7305  162.6497 Cl      1  UNL1       -0.0806
     20 C         144.4526  142.2694  164.5937 C.3     1  UNL1        0.0400
     21 C         145.6693  141.6931  163.9324 C.3     1  UNL1        0.0063
     22 C         144.5332  143.5983  165.2848 C.3     1  UNL1        0.0063
     23 C         143.0366  140.7870  167.1327 C.3     1  UNL1        0.1163
     24 N         142.7961  141.9360  168.0665 N.3     1  UNL1       -0.2934
     25 H         142.8021  142.7832  167.4985 H       1  UNL1        0.1236
     26 C         141.5470  141.9795  168.8958 C.3     1  UNL1        0.0571
     27 C         141.1389  143.0903  169.8176 C.3     1  UNL1        0.0186
     28 C         139.8264  142.7172  170.4405 C.3     1  UNL1        0.0367
     29 C         139.4232  141.3757  169.9037 C.3     1  UNL1        0.1624
     30 F         138.1758  140.6225  170.2591 F       1  UNL1       -0.2372
     31 C         140.4867  140.9199  168.9490 C.3     1  UNL1        0.0510
@<TRIPOS>BOND
     1     6     7    1
     2     7     8   ar
     3     8     9   ar
     4     9    10   ar
     5    10     1    1
     6     1     2   ar
     7     2    13    1
     8    13    14   ar
     9    14    15   ar
    10    15    16   ar
    11    16    17   ar
    12    17    18   ar
    13    18    19    1
    14     2     3   ar
    15     3     4   ar
    16     4    23    1
    17    23    24    1
    18    26    24    1
    19    26    27    1
    20    27    28    1
    21    28    29    1
    22    29    30    1
    23    29    31    1
    24     4     5   ar
    25     5    20    1
    26    20    21    1
    27    20    22    1
    28    10    11   ar
    29    11    12   ar
    30    12     7   ar
    31     5     1   ar
    32    18    13   ar
    33    31    26    1
    34    24    25    1
@<TRIPOS>MOLECULE
*****
 31 34 0 0 0
SMALL
GASTEIGER

@<TRIPOS>ATOM
      1 N         140.2101  142.0101  164.4420 N.ar    1  UNL1       -0.2915
      2 C         140.9805  142.9669  165.3029 C.ar    1  UNL1        0.1658
      3 N         141.3608  144.1470  164.4586 N.ar    1  UNL1       -0.2282
      4 C         140.8255  143.9196  163.0760 C.ar    1  UNL1        0.0885
      5 C         140.1143  142.5989  163.0658 C.ar    1  UNL1        0.0573
      6 C         137.9148  136.7512  166.1958 C.3     1  UNL1        0.0521
      7 C         138.4886  138.0659  165.7573 C.ar    1  UNL1        0.0595
      8 C         139.8149  138.1096  165.0580 C.ar    1  UNL1        0.0162
      9 C         140.3887  139.4243  164.6196 C.ar    1  UNL1        0.0203
     10 C         139.6363  140.6954  164.8805 C.ar    1  UNL1        0.0842
     11 C         138.3100  140.6518  165.5798 C.ar    1  UNL1        0.1159
     12 N         137.7362  139.3370  166.0182 N.ar    1  UNL1       -0.2466
     13 C         141.3123  142.7770  166.7533 C.ar    1  UNL1        0.1261
     14 N         140.2953  143.1084  167.8050 N.ar    1  UNL1       -0.2399
     15 C         140.6271  142.9185  169.2555 C.ar    1  UNL1        0.0990
     16 C         141.9759  142.3971  169.6543 C.ar    1  UNL1        0.0215
     17 C         142.9928  142.0656  168.6026 C.ar    1  UNL1        0.0146
     18 C         142.6610  142.2556  167.1522 C.ar    1  UNL1        0.0783
     19 CL        143.6780  141.9241  166.1006 Cl      1  UNL1       -0.0806
     20 C         139.4279  141.9763  161.8863 C.3     1  UNL1        0.0400
     21 C         138.0636  142.4472  161.4778 C.3     1  UNL1        0.0063
     22 C         140.1058  140.8828  161.1151 C.3     1  UNL1        0.0063
     23 C         140.9750  144.8495  161.9086 C.3     1  UNL1        0.1163
     24 N         142.2024  144.7827  161.0489 N.3     1  UNL1       -0.2934
     25 H         142.7038  145.6608  161.1826 H       1  UNL1        0.1236
     26 C         143.1994  143.6801  161.2495 C.3     1  UNL1        0.0571
     27 C         143.3186  142.4371  160.4182 C.3     1  UNL1        0.0186
     28 C         144.4451  141.6157  160.9715 C.3     1  UNL1        0.0367
     29 C         145.0222  142.3509  162.1448 C.3     1  UNL1        0.1624
     30 F         146.1679  141.8911  162.9967 F       1  UNL1       -0.2372
     31 C         144.2522  143.6268  162.3165 C.3     1  UNL1        0.0510
@<TRIPOS>BOND
     1     6     7    1
     2     7     8   ar
     3     8     9   ar
     4     9    10   ar
     5    10     1    1
     6     1     2   ar
     7     2    13    1
     8    13    14   ar
     9    14    15   ar
    10    15    16   ar
    11    16    17   ar
    12    17    18   ar
    13    18    19    1
    14     2     3   ar
    15     3     4   ar
    16     4    23    1
    17    23    24    1
    18    26    24    1
    19    26    27    1
    20    27    28    1
    21    28    29    1
    22    29    30    1
    23    29    31    1
    24     4     5   ar
    25     5    20    1
    26    20    21    1
    27    20    22    1
    28    10    11   ar
    29    11    12   ar
    30    12     7   ar
    31     5     1   ar
    32    18    13   ar
    33    31    26    1
    34    24    25    1
@<TRIPOS>MOLECULE
*****
 31 34 0 0 0
SMALL
GASTEIGER

@<TRIPOS>ATOM
      1 N         140.4166  140.7438  165.0026 N.ar    1  UNL1       -0.2915
      2 C         140.6560  141.6702  163.8474 C.ar    1  UNL1        0.1658
      3 N         139.7229  141.2804  162.7395 N.ar    1  UNL1       -0.2282
      4 C         138.9068  140.1131  163.2100 C.ar    1  UNL1        0.0885
      5 C         139.3355  139.7815  164.6087 C.ar    1  UNL1        0.0573
      6 C         143.2802  140.8661  170.2737 C.3     1  UNL1        0.0521
      7 C         142.5643  140.8355  168.9560 C.ar    1  UNL1        0.0595
      8 C         141.5852  141.9176  168.6091 C.ar    1  UNL1        0.0162
      9 C         140.8693  141.8870  167.2913 C.ar    1  UNL1        0.0203
     10 C         141.1325  140.7744  166.3204 C.ar    1  UNL1        0.0842
     11 C         142.1116  139.6923  166.6673 C.ar    1  UNL1        0.1159
     12 N         142.8275  139.7229  167.9851 N.ar    1  UNL1       -0.2466
     13 C         141.6535  142.7898  163.8071 C.ar    1  UNL1        0.1261
     14 N         141.1861  144.2135  163.8768 N.ar    1  UNL1       -0.2399
     15 C         142.1836  145.3331  163.8365 C.ar    1  UNL1        0.0990
     16 C         143.6483  145.0290  163.7266 C.ar    1  UNL1        0.0215
     17 C         144.1156  143.6054  163.6570 C.ar    1  UNL1        0.0146
     18 C         143.1182  142.4858  163.6972 C.ar    1  UNL1        0.0783
     19 CL        143.5856  141.0621  163.6276 Cl      1  UNL1       -0.0806
     20 C         138.7804  138.6808  165.4633 C.3     1  UNL1        0.0400
     21 C         139.0605  137.2486  165.1170 C.3     1  UNL1        0.0063
     22 C         137.9453  139.0125  166.6645 C.3     1  UNL1        0.0063
     23 C         137.8479  139.4023  162.4205 C.3     1  UNL1        0.1163
     24 N         137.3902  139.9614  161.1059 N.3     1  UNL1       -0.2934
     25 H         137.2862  140.9679  161.2343 H       1  UNL1        0.1236
     26 C         138.2261  139.7658  159.8760 C.3     1  UNL1        0.0571
     27 C         138.0920  140.5245  158.5889 C.3     1  UNL1        0.0186
     28 C         139.1259  140.0047  157.6345 C.3     1  UNL1        0.0367
     29 C         139.8990  138.9246  158.3317 C.3     1  UNL1        0.1624
     30 F         141.0296  138.1316  157.7465 F       1  UNL1       -0.2372
     31 C         139.3428  138.7770  159.7170 C.3     1  UNL1        0.0510
@<TRIPOS>BOND
     1     6     7    1
     2     7     8   ar
     3     8     9   ar
     4     9    10   ar
     5    10     1    1
     6     1     2   ar
     7     2    13    1
     8    13    14   ar
     9    14    15   ar
    10    15    16   ar
    11    16    17   ar
    12    17    18   ar
    13    18    19    1
    14     2     3   ar
    15     3     4   ar
    16     4    23    1
    17    23    24    1
    18    26    24    1
    19    26    27    1
    20    27    28    1
    21    28    29    1
    22    29    30    1
    23    29    31    1
    24     4     5   ar
    25     5    20    1
    26    20    21    1
    27    20    22    1
    28    10    11   ar
    29    11    12   ar
    30    12     7   ar
    31     5     1   ar
    32    18    13   ar
    33    31    26    1
    34    24    25    1
@<TRIPOS>MOLECULE
*****
 31 34 0 0 0
SMALL
GASTEIGER

@<TRIPOS>ATOM
      1 N         141.1336  140.3932  163.9421 N.ar    1  UNL1       -0.2915
      2 C         141.1825  141.6044  164.8256 C.ar    1  UNL1        0.1658
      3 N         140.4485  141.2832  166.0937 N.ar    1  UNL1       -0.2282
      4 C         139.9460  139.8735  165.9940 C.ar    1  UNL1        0.0885
      5 C         140.3694  139.3234  164.6643 C.ar    1  UNL1        0.0573
      6 C         143.5675  139.9119  158.4791 C.3     1  UNL1        0.0521
      7 C         142.9591  140.0322  159.8449 C.ar    1  UNL1        0.0595
      8 C         143.7050  139.5295  161.0452 C.ar    1  UNL1        0.0162
      9 C         143.0965  139.6498  162.4110 C.ar    1  UNL1        0.0203
     10 C         141.7421  140.2728  162.5764 C.ar    1  UNL1        0.0842
     11 C         140.9962  140.7755  161.3761 C.ar    1  UNL1        0.1159
     12 N         141.6047  140.6552  160.0103 N.ar    1  UNL1       -0.2466
     13 C         141.8485  142.9080  164.4984 C.ar    1  UNL1        0.1261
     14 N         141.0305  144.0659  164.0081 N.ar    1  UNL1       -0.2399
     15 C         141.6965  145.3695  163.6809 C.ar    1  UNL1        0.0990
     16 C         143.1804  145.5153  163.8440 C.ar    1  UNL1        0.0215
     17 C         143.9984  144.3575  164.3342 C.ar    1  UNL1        0.0146
     18 C         143.3324  143.0539  164.6614 C.ar    1  UNL1        0.0783
     19 CL        144.1505  141.8961  165.1518 Cl      1  UNL1       -0.0806
     20 C         140.0794  137.9454  164.1475 C.3     1  UNL1        0.0400
     21 C         141.0503  136.8302  164.3993 C.3     1  UNL1        0.0063
     22 C         138.8184  137.6826  163.3787 C.3     1  UNL1        0.0063
     23 C         139.1583  139.1421  167.0403 C.3     1  UNL1        0.1163
     24 N         138.8262  139.8177  168.3377 N.3     1  UNL1       -0.2934
     25 H         138.2329  139.1741  168.8614 H       1  UNL1        0.1236
     26 C         139.9259  140.2441  169.2643 C.3     1  UNL1        0.0571
     27 C         139.8773  141.4020  170.2166 C.3     1  UNL1        0.0186
     28 C         141.1888  141.4610  170.9421 C.3     1  UNL1        0.0367
     29 C         142.0481  140.3394  170.4383 C.3     1  UNL1        0.1624
     30 F         143.4428  140.0251  170.8918 F       1  UNL1       -0.2372
     31 C         141.2675  139.5873  169.4013 C.3     1  UNL1        0.0510
@<TRIPOS>BOND
     1     6     7    1
     2     7     8   ar
     3     8     9   ar
     4     9    10   ar
     5    10     1    1
     6     1     2   ar
     7     2    13    1
     8    13    14   ar
     9    14    15   ar
    10    15    16   ar
    11    16    17   ar
    12    17    18   ar
    13    18    19    1
    14     2     3   ar
    15     3     4   ar
    16     4    23    1
    17    23    24    1
    18    26    24    1
    19    26    27    1
    20    27    28    1
    21    28    29    1
    22    29    30    1
    23    29    31    1
    24     4     5   ar
    25     5    20    1
    26    20    21    1
    27    20    22    1
    28    10    11   ar
    29    11    12   ar
    30    12     7   ar
    31     5     1   ar
    32    18    13   ar
    33    31    26    1
    34    24    25    1
@<TRIPOS>MOLECULE
*****
 31 34 0 0 0
SMALL
GASTEIGER

@<TRIPOS>ATOM
      1 N         140.6225  142.5384  164.5171 N.ar    1  UNL1       -0.2915
      2 C         141.7609  142.2141  163.5957 C.ar    1  UNL1        0.1658
      3 N         141.6091  143.0499  162.3594 N.ar    1  UNL1       -0.2282
      4 C         140.3769  143.8907  162.5167 C.ar    1  UNL1        0.0885
      5 C         139.7672  143.5745  163.8503 C.ar    1  UNL1        0.0573
      6 C         139.6596  140.1160  169.9213 C.3     1  UNL1        0.0521
      7 C         139.9003  140.7216  168.5703 C.ar    1  UNL1        0.0595
      8 C         140.6711  142.0026  168.4491 C.ar    1  UNL1        0.0162
      9 C         140.9119  142.6082  167.0981 C.ar    1  UNL1        0.0203
     10 C         140.3818  141.9328  165.8682 C.ar    1  UNL1        0.0842
     11 C         139.6110  140.6517  165.9893 C.ar    1  UNL1        0.1159
     12 N         139.3702  140.0461  167.3403 N.ar    1  UNL1       -0.2466
     13 C         142.8584  141.2274  163.8636 C.ar    1  UNL1        0.1261
     14 N         142.5351  139.7715  164.0250 N.ar    1  UNL1       -0.2399
     15 C         143.6326  138.7847  164.2929 C.ar    1  UNL1        0.0990
     16 C         145.0534  139.2537  164.3993 C.ar    1  UNL1        0.0215
     17 C         145.3767  140.7095  164.2379 C.ar    1  UNL1        0.0146
     18 C         144.2792  141.6963  163.9701 C.ar    1  UNL1        0.0783
     19 CL        144.6026  143.1522  163.8087 Cl      1  UNL1       -0.0806
     20 C         138.5209  144.1870  164.4174 C.3     1  UNL1        0.0400
     21 C         137.1909  143.9039  163.7842 C.3     1  UNL1        0.0063
     22 C         138.6046  145.0828  165.6177 C.3     1  UNL1        0.0063
     23 C         139.8474  144.8748  161.5162 C.3     1  UNL1        0.1163
     24 N         140.7980  145.6826  160.6832 N.3     1  UNL1       -0.2934
     25 H         141.6776  145.7250  161.1978 H       1  UNL1        0.1236
     26 C         141.1329  145.2430  159.2888 C.3     1  UNL1        0.0571
     27 C         140.5313  145.7833  158.0254 C.3     1  UNL1        0.0186
     28 C         141.1549  145.0601  156.8687 C.3     1  UNL1        0.0367
     29 C         142.1420  144.0726  157.4171 C.3     1  UNL1        0.1624
     30 F         142.9931  143.1366  156.6114 F       1  UNL1       -0.2372
     31 C         142.1284  144.1857  158.9129 C.3     1  UNL1        0.0510
@<TRIPOS>BOND
     1     6     7    1
     2     7     8   ar
     3     8     9   ar
     4     9    10   ar
     5    10     1    1
     6     1     2   ar
     7     2    13    1
     8    13    14   ar
     9    14    15   ar
    10    15    16   ar
    11    16    17   ar
    12    17    18   ar
    13    18    19    1
    14     2     3   ar
    15     3     4   ar
    16     4    23    1
    17    23    24    1
    18    26    24    1
    19    26    27    1
    20    27    28    1
    21    28    29    1
    22    29    30    1
    23    29    31    1
    24     4     5   ar
    25     5    20    1
    26    20    21    1
    27    20    22    1
    28    10    11   ar
    29    11    12   ar
    30    12     7   ar
    31     5     1   ar
    32    18    13   ar
    33    31    26    1
    34    24    25    1
