@<TRIPOS>MOLECULE
*****
 31 35 0 0 0
SMALL
GASTEIGER

@<TRIPOS>ATOM
      1 O         137.6497  140.3967  162.7870 O.2     1  UNL1       -0.2749
      2 C         138.5788  141.2729  163.5738 C.2     1  UNL1        0.2250
      3 N         138.9194  140.9222  164.9920 N.am    1  UNL1       -0.2750
      4 C         138.3310  139.6954  165.6233 C.3     1  UNL1        0.1000
      5 C         138.6717  139.3448  167.0413 C.3     1  UNL1        0.0670
      6 C         139.6007  140.2210  167.8281 C.ar    1  UNL1        0.0583
      7 N         139.9414  139.8703  169.2463 N.ar    1  UNL1       -0.2484
      8 C         140.8705  140.7466  170.0331 C.ar    1  UNL1        0.1023
      9 C         141.4589  141.9735  169.4017 C.ar    1  UNL1        0.0902
     10 C         141.1182  142.3241  167.9836 C.ar    1  UNL1        0.0040
     11 C         140.1891  141.4479  167.1968 C.ar    1  UNL1        0.0113
     12 C         139.8485  141.7985  165.7788 C.3     1  UNL1        0.1213
     13 C         139.1672  142.4998  162.9426 C.3     1  UNL1        0.0704
     14 C         137.8420  142.8745  163.5370 C.3     1  UNL1        0.0087
     15 C         137.6113  144.3330  163.2731 C.3     1  UNL1        0.0005
     16 C         138.7940  144.8597  162.5155 C.3     1  UNL1        0.0005
     17 C         139.7556  143.7267  162.3113 C.3     1  UNL1        0.0095
     18 C         141.0808  143.3520  161.7168 C.3     1  UNL1        0.0162
     19 C         141.3114  141.8935  161.9808 C.3     1  UNL1        0.0544
     20 C         140.1288  141.3668  162.7383 C.3     1  UNL1        0.0243
     21 N         142.5137  141.1008  161.5608 N.3     1  UNL1       -0.2996
     22 H         142.8451  141.5092  160.6869 H       1  UNL1        0.1232
     23 C         143.7022  141.0021  162.4707 C.3     1  UNL1        0.0539
     24 C         144.7947  142.0207  162.6078 C.3     1  UNL1        0.0157
     25 C         145.7745  141.5156  163.6250 C.3     1  UNL1        0.0014
     26 C         145.2874  140.1847  164.1167 C.3     1  UNL1        0.0014
     27 C         144.0067  139.8674  163.4032 C.3     1  UNL1        0.0157
     28 C         142.3879  142.8498  170.1885 C.3     1  UNL1        0.4200
     29 F         143.3170  143.7260  170.9753 F       1  UNL1       -0.1658
     30 F         141.4044  143.9783  170.0931 F       1  UNL1       -0.1658
     31 F         143.3715  141.7213  170.2839 F       1  UNL1       -0.1658
@<TRIPOS>BOND
     1     1     2    2
     2     2     3   am
     3     3     4    1
     4     4     5    1
     5     5     6    1
     6     6     7   ar
     7     7     8   ar
     8     8     9   ar
     9     9    28    1
    10    28    29    1
    11    28    30    1
    12    28    31    1
    13     9    10   ar
    14    10    11   ar
    15    11    12    1
    16    13     2    1
    17    13    14    1
    18    14    15    1
    19    15    16    1
    20    17    16    1
    21    17    18    1
    22    18    19    1
    23    19    21    1
    24    21    23    1
    25    23    24    1
    26    24    25    1
    27    25    26    1
    28    26    27    1
    29    19    20    1
    30    12     3    1
    31    17    13    1
    32    27    23    1
    33    11     6   ar
    34    20    13    1
    35    21    22    1
@<TRIPOS>MOLECULE
*****
 31 35 0 0 0
SMALL
GASTEIGER

@<TRIPOS>ATOM
      1 O         143.3992  138.7635  168.0664 O.2     1  UNL1       -0.2749
      2 C         142.5646  139.9511  167.6878 C.2     1  UNL1        0.2250
      3 N         142.7352  140.5889  166.3409 N.am    1  UNL1       -0.2750
      4 C         143.7402  140.0391  165.3726 C.3     1  UNL1        0.1000
      5 C         143.9107  140.6770  164.0257 C.3     1  UNL1        0.0670
      6 C         143.0762  141.8645  163.6471 C.ar    1  UNL1        0.0583
      7 N         143.2468  142.5023  162.3002 N.ar    1  UNL1       -0.2484
      8 C         142.4122  143.6898  161.9216 C.ar    1  UNL1        0.1023
      9 C         141.4071  144.2396  162.8900 C.ar    1  UNL1        0.0902
     10 C         141.2366  143.6018  164.2369 C.ar    1  UNL1        0.0040
     11 C         142.0712  142.4142  164.6154 C.ar    1  UNL1        0.0113
     12 C         141.9007  141.7764  165.9623 C.3     1  UNL1        0.1213
     13 C         141.5596  140.5008  168.6561 C.3     1  UNL1        0.0704
     14 C         142.9211  140.9521  169.0950 C.3     1  UNL1        0.0087
     15 C         142.7575  141.7808  170.3346 C.3     1  UNL1        0.0005
     16 C         141.2949  141.8416  170.6618 C.3     1  UNL1        0.0005
     17 C         140.5545  141.0506  169.6245 C.3     1  UNL1        0.0095
     18 C         139.1931  140.5993  169.1856 C.3     1  UNL1        0.0162
     19 C         139.3566  139.7706  167.9460 C.3     1  UNL1        0.0544
     20 C         140.8192  139.7098  167.6188 C.3     1  UNL1        0.0243
     21 N         138.2516  139.1175  167.1698 N.3     1  UNL1       -0.2996
     22 H         137.4299  139.7138  167.2688 H       1  UNL1        0.1232
     23 C         138.4202  138.8526  165.7031 C.3     1  UNL1        0.0539
     24 C         138.2098  139.8449  164.5980 C.3     1  UNL1        0.0157
     25 C         138.4884  139.1545  163.2958 C.3     1  UNL1        0.0014
     26 C         138.8710  137.7355  163.5961 C.3     1  UNL1        0.0014
     27 C         138.8288  137.5489  165.0839 C.3     1  UNL1        0.0157
     28 C         140.5726  145.4271  162.5114 C.3     1  UNL1        0.4200
     29 F         139.7381  146.6146  162.1329 F       1  UNL1       -0.1658
     30 F         139.8870  145.3702  163.8444 F       1  UNL1       -0.1658
     31 F         141.2582  145.4840  161.1785 F       1  UNL1       -0.1658
@<TRIPOS>BOND
     1     1     2    2
     2     2     3   am
     3     3     4    1
     4     4     5    1
     5     5     6    1
     6     6     7   ar
     7     7     8   ar
     8     8     9   ar
     9     9    28    1
    10    28    29    1
    11    28    30    1
    12    28    31    1
    13     9    10   ar
    14    10    11   ar
    15    11    12    1
    16    13     2    1
    17    13    14    1
    18    14    15    1
    19    15    16    1
    20    17    16    1
    21    17    18    1
    22    18    19    1
    23    19    21    1
    24    21    23    1
    25    23    24    1
    26    24    25    1
    27    25    26    1
    28    26    27    1
    29    19    20    1
    30    12     3    1
    31    17    13    1
    32    27    23    1
    33    11     6   ar
    34    20    13    1
    35    21    22    1
@<TRIPOS>MOLECULE
*****
 31 35 0 0 0
SMALL
GASTEIGER

@<TRIPOS>ATOM
      1 O         139.6346  137.7222  162.1154 O.2     1  UNL1       -0.2749
      2 C         140.3676  138.7686  162.9013 C.2     1  UNL1        0.2250
      3 N         139.9824  139.0447  164.3245 N.am    1  UNL1       -0.2750
      4 C         138.8641  138.2744  164.9617 C.3     1  UNL1        0.1000
      5 C         138.4789  138.5505  166.3848 C.3     1  UNL1        0.0670
      6 C         139.2119  139.5970  167.1707 C.ar    1  UNL1        0.0583
      7 N         138.8267  139.8731  168.5939 N.ar    1  UNL1       -0.2484
      8 C         139.5597  140.9195  169.3798 C.ar    1  UNL1        0.1023
      9 C         140.6780  141.6899  168.7425 C.ar    1  UNL1        0.0902
     10 C         141.0632  141.4137  167.3194 C.ar    1  UNL1        0.0040
     11 C         140.3302  140.3673  166.5335 C.ar    1  UNL1        0.0113
     12 C         140.7154  140.0912  165.1104 C.3     1  UNL1        0.1213
     13 C         141.4858  139.5389  162.2640 C.3     1  UNL1        0.0704
     14 C         141.9621  138.1353  162.4940 C.3     1  UNL1        0.0087
     15 C         143.3747  138.0381  161.9989 C.3     1  UNL1        0.0005
     16 C         143.7715  139.3817  161.4629 C.3     1  UNL1        0.0005
     17 C         142.6042  140.3093  161.6268 C.3     1  UNL1        0.0095
     18 C         142.1279  141.7129  161.3968 C.3     1  UNL1        0.0162
     19 C         140.7153  141.8101  161.8919 C.3     1  UNL1        0.0544
     20 C         140.3185  140.4665  162.4279 C.3     1  UNL1        0.0243
     21 N         139.8512  143.0358  161.8571 N.3     1  UNL1       -0.2996
     22 H         139.0621  142.8225  161.2470 H       1  UNL1        0.1232
     23 C         139.2784  143.5860  163.1295 C.3     1  UNL1        0.0539
     24 C         137.8251  143.8310  163.4087 C.3     1  UNL1        0.0157
     25 C         137.7067  144.3842  164.7979 C.3     1  UNL1        0.0014
     26 C         139.0870  144.4810  165.3774 C.3     1  UNL1        0.0014
     27 C         140.0582  143.9877  164.3462 C.3     1  UNL1        0.0157
     28 C         141.4110  142.7363  169.5284 C.3     1  UNL1        0.4200
     29 F         142.1440  143.7828  170.3143 F       1  UNL1       -0.1658
     30 F         140.3311  143.7288  169.2141 F       1  UNL1       -0.1658
     31 F         142.4909  141.7438  169.8426 F       1  UNL1       -0.1658
@<TRIPOS>BOND
     1     1     2    2
     2     2     3   am
     3     3     4    1
     4     4     5    1
     5     5     6    1
     6     6     7   ar
     7     7     8   ar
     8     8     9   ar
     9     9    28    1
    10    28    29    1
    11    28    30    1
    12    28    31    1
    13     9    10   ar
    14    10    11   ar
    15    11    12    1
    16    13     2    1
    17    13    14    1
    18    14    15    1
    19    15    16    1
    20    17    16    1
    21    17    18    1
    22    18    19    1
    23    19    21    1
    24    21    23    1
    25    23    24    1
    26    24    25    1
    27    25    26    1
    28    26    27    1
    29    19    20    1
    30    12     3    1
    31    17    13    1
    32    27    23    1
    33    11     6   ar
    34    20    13    1
    35    21    22    1
@<TRIPOS>MOLECULE
*****
 31 35 0 0 0
SMALL
GASTEIGER

@<TRIPOS>ATOM
      1 O         142.5839  142.7468  161.5961 O.2     1  UNL1       -0.2749
      2 C         141.6092  143.0070  162.7062 C.2     1  UNL1        0.2250
      3 N         142.0172  142.7783  164.1314 N.am    1  UNL1       -0.2750
      4 C         143.3998  142.2895  164.4466 C.3     1  UNL1        0.1000
      5 C         143.8077  142.0608  165.8718 C.3     1  UNL1        0.0670
      6 C         142.8330  142.3210  166.9818 C.ar    1  UNL1        0.0583
      7 N         143.2410  142.0923  168.4071 N.ar    1  UNL1       -0.2484
      8 C         142.2663  142.3525  169.5172 C.ar    1  UNL1        0.1023
      9 C         140.8836  142.8413  169.2020 C.ar    1  UNL1        0.0902
     10 C         140.4757  143.0700  167.7768 C.ar    1  UNL1        0.0040
     11 C         141.4504  142.8098  166.6667 C.ar    1  UNL1        0.0113
     12 C         141.0425  143.0385  165.2415 C.3     1  UNL1        0.1213
     13 C         140.2266  143.4959  162.3910 C.3     1  UNL1        0.0704
     14 C         141.1419  144.6838  162.4242 C.3     1  UNL1        0.0087
     15 C         140.3250  145.9068  162.1296 C.3     1  UNL1        0.0005
     16 C         138.9048  145.4748  161.9143 C.3     1  UNL1        0.0005
     17 C         138.8439  143.9848  162.0759 C.3     1  UNL1        0.0095
     18 C         137.9286  142.7969  162.0426 C.3     1  UNL1        0.0162
     19 C         138.7456  141.5738  162.3372 C.3     1  UNL1        0.0544
     20 C         140.1658  142.0058  162.5525 C.3     1  UNL1        0.0243
     21 N         138.2324  140.1659  162.4047 N.3     1  UNL1       -0.2996
     22 H         138.6921  139.6487  161.6554 H       1  UNL1        0.1232
     23 C         138.4105  139.3620  163.6584 C.3     1  UNL1        0.0539
     24 C         138.2158  139.8595  165.0600 C.3     1  UNL1        0.0157
     25 C         138.4996  138.7243  165.9985 C.3     1  UNL1        0.0014
     26 C         138.8699  137.5252  165.1768 C.3     1  UNL1        0.0014
     27 C         138.8148  137.9193  163.7306 C.3     1  UNL1        0.0157
     28 C         139.9089  143.1015  170.3121 C.3     1  UNL1        0.4200
     29 F         138.9342  143.3617  171.4221 F       1  UNL1       -0.1658
     30 F         139.5383  141.6481  170.3273 F       1  UNL1       -0.1658
     31 F         140.2795  144.5549  170.2968 F       1  UNL1       -0.1658
@<TRIPOS>BOND
     1     1     2    2
     2     2     3   am
     3     3     4    1
     4     4     5    1
     5     5     6    1
     6     6     7   ar
     7     7     8   ar
     8     8     9   ar
     9     9    28    1
    10    28    29    1
    11    28    30    1
    12    28    31    1
    13     9    10   ar
    14    10    11   ar
    15    11    12    1
    16    13     2    1
    17    13    14    1
    18    14    15    1
    19    15    16    1
    20    17    16    1
    21    17    18    1
    22    18    19    1
    23    19    21    1
    24    21    23    1
    25    23    24    1
    26    24    25    1
    27    25    26    1
    28    26    27    1
    29    19    20    1
    30    12     3    1
    31    17    13    1
    32    27    23    1
    33    11     6   ar
    34    20    13    1
    35    21    22    1
@<TRIPOS>MOLECULE
*****
 31 35 0 0 0
SMALL
GASTEIGER

@<TRIPOS>ATOM
      1 O         142.8621  138.1521  166.1985 O.2     1  UNL1       -0.2749
      2 C         141.8628  139.0710  165.5605 C.2     1  UNL1        0.2250
      3 N         142.3022  140.4019  165.0258 N.am    1  UNL1       -0.2750
      4 C         143.7408  140.8138  165.1292 C.3     1  UNL1        0.1000
      5 C         144.1802  142.1446  164.5946 C.3     1  UNL1        0.0670
      6 C         143.1809  143.0635  163.9565 C.ar    1  UNL1        0.0583
      7 N         143.6203  144.3944  163.4218 N.ar    1  UNL1       -0.2484
      8 C         142.6211  145.3133  162.7838 C.ar    1  UNL1        0.1023
      9 C         141.1824  144.9013  162.6804 C.ar    1  UNL1        0.0902
     10 C         140.7431  143.5705  163.2150 C.ar    1  UNL1        0.0040
     11 C         141.7423  142.6516  163.8531 C.ar    1  UNL1        0.0113
     12 C         141.3030  141.3208  164.3877 C.3     1  UNL1        0.1213
     13 C         140.4242  138.6591  165.4570 C.3     1  UNL1        0.0704
     14 C         141.1336  138.1786  164.2258 C.3     1  UNL1        0.0087
     15 C         140.1334  137.4697  163.3614 C.3     1  UNL1        0.0005
     16 C         138.8059  137.5121  164.0584 C.3     1  UNL1        0.0005
     17 C         138.9855  138.2472  165.3536 C.3     1  UNL1        0.0095
     18 C         138.2762  138.7277  166.5848 C.3     1  UNL1        0.0162
     19 C         139.2764  139.4365  167.4492 C.3     1  UNL1        0.0544
     20 C         140.6039  139.3942  166.7522 C.3     1  UNL1        0.0243
     21 N         138.9979  140.0756  168.7774 N.3     1  UNL1       -0.2996
     22 H         138.8689  139.3176  169.4476 H       1  UNL1        0.1232
     23 C         139.9955  141.0204  169.3790 C.3     1  UNL1        0.0539
     24 C         140.7643  140.8003  170.6481 C.3     1  UNL1        0.0157
     25 C         141.6434  141.9951  170.8707 C.3     1  UNL1        0.0014
     26 C         141.4180  142.9536  169.7390 C.3     1  UNL1        0.0014
     27 C         140.3996  142.3512  168.8172 C.3     1  UNL1        0.0157
     28 C         140.1832  145.8202  162.0423 C.3     1  UNL1        0.4200
     29 F         139.1839  146.7391  161.4042 F       1  UNL1       -0.1658
     30 F         141.0097  145.8501  160.7910 F       1  UNL1       -0.1658
     31 F         139.3566  145.7902  163.2937 F       1  UNL1       -0.1658
@<TRIPOS>BOND
     1     1     2    2
     2     2     3   am
     3     3     4    1
     4     4     5    1
     5     5     6    1
     6     6     7   ar
     7     7     8   ar
     8     8     9   ar
     9     9    28    1
    10    28    29    1
    11    28    30    1
    12    28    31    1
    13     9    10   ar
    14    10    11   ar
    15    11    12    1
    16    13     2    1
    17    13    14    1
    18    14    15    1
    19    15    16    1
    20    17    16    1
    21    17    18    1
    22    18    19    1
    23    19    21    1
    24    21    23    1
    25    23    24    1
    26    24    25    1
    27    25    26    1
    28    26    27    1
    29    19    20    1
    30    12     3    1
    31    17    13    1
    32    27    23    1
    33    11     6   ar
    34    20    13    1
    35    21    22    1
@<TRIPOS>MOLECULE
*****
 31 35 0 0 0
SMALL
GASTEIGER

@<TRIPOS>ATOM
      1 O         142.3489  137.7040  162.5582 O.2     1  UNL1       -0.2749
      2 C         141.5092  138.6468  163.3681 C.2     1  UNL1        0.2250
      3 N         141.8564  138.9175  164.8020 N.am    1  UNL1       -0.2750
      4 C         143.0433  138.2454  165.4261 C.3     1  UNL1        0.1000
      5 C         143.3905  138.5161  166.8600 C.3     1  UNL1        0.0670
      6 C         142.5508  139.4590  167.6698 C.ar    1  UNL1        0.0583
      7 N         142.8980  139.7297  169.1038 N.ar    1  UNL1       -0.2484
      8 C         142.0583  140.6726  169.9137 C.ar    1  UNL1        0.1023
      9 C         140.8714  141.3447  169.2896 C.ar    1  UNL1        0.0902
     10 C         140.5242  141.0740  167.8557 C.ar    1  UNL1        0.0040
     11 C         141.3639  140.1311  167.0458 C.ar    1  UNL1        0.0113
     12 C         141.0167  139.8604  165.6119 C.3     1  UNL1        0.1213
     13 C         140.3223  139.3190  162.7440 C.3     1  UNL1        0.0704
     14 C         139.9066  137.9402  163.1637 C.3     1  UNL1        0.0087
     15 C         138.4628  137.7601  162.7990 C.3     1  UNL1        0.0005
     16 C         137.9861  139.0277  162.1539 C.3     1  UNL1        0.0005
     17 C         139.1353  139.9911  162.1200 C.3     1  UNL1        0.0095
     18 C         139.5510  141.3699  161.7004 C.3     1  UNL1        0.0162
     19 C         140.9948  141.5499  162.0650 C.3     1  UNL1        0.0544
     20 C         141.4715  140.2824  162.7101 C.3     1  UNL1        0.0243
     21 N         141.8175  142.7814  161.8266 N.3     1  UNL1       -0.2996
     22 H         141.1724  143.5136  161.5299 H       1  UNL1        0.1232
     23 C         142.6450  143.3573  162.9372 C.3     1  UNL1        0.0539
     24 C         143.1912  142.6021  164.1126 C.3     1  UNL1        0.0157
     25 C         143.9553  143.5675  164.9693 C.3     1  UNL1        0.0014
     26 C         143.8813  144.9194  164.3234 C.3     1  UNL1        0.0014
     27 C         143.0715  144.7894  163.0676 C.3     1  UNL1        0.0157
     28 C         140.0317  142.2876  170.0995 C.3     1  UNL1        0.4200
     29 F         139.1920  143.2305  170.9093 F       1  UNL1       -0.1658
     30 F         138.9016  141.3015  170.0757 F       1  UNL1       -0.1658
     31 F         141.1618  143.2737  170.1232 F       1  UNL1       -0.1658
@<TRIPOS>BOND
     1     1     2    2
     2     2     3   am
     3     3     4    1
     4     4     5    1
     5     5     6    1
     6     6     7   ar
     7     7     8   ar
     8     8     9   ar
     9     9    28    1
    10    28    29    1
    11    28    30    1
    12    28    31    1
    13     9    10   ar
    14    10    11   ar
    15    11    12    1
    16    13     2    1
    17    13    14    1
    18    14    15    1
    19    15    16    1
    20    17    16    1
    21    17    18    1
    22    18    19    1
    23    19    21    1
    24    21    23    1
    25    23    24    1
    26    24    25    1
    27    25    26    1
    28    26    27    1
    29    19    20    1
    30    12     3    1
    31    17    13    1
    32    27    23    1
    33    11     6   ar
    34    20    13    1
    35    21    22    1
@<TRIPOS>MOLECULE
*****
 31 35 0 0 0
SMALL
GASTEIGER

@<TRIPOS>ATOM
      1 O         137.4220  138.0951  161.6934 O.2     1  UNL1       -0.2749
      2 C         138.4900  139.1455  161.7699 C.2     1  UNL1        0.2250
      3 N         139.2568  139.3442  163.0437 N.am    1  UNL1       -0.2750
      4 C         138.9556  138.4924  164.2410 C.3     1  UNL1        0.1000
      5 C         139.7224  138.6910  165.5148 C.3     1  UNL1        0.0670
      6 C         140.7905  139.7415  165.5912 C.ar    1  UNL1        0.0583
      7 N         141.5573  139.9401  166.8650 N.ar    1  UNL1       -0.2484
      8 C         142.6253  140.9906  166.9415 C.ar    1  UNL1        0.1023
      9 C         142.9265  141.8424  165.7440 C.ar    1  UNL1        0.0902
     10 C         142.1597  141.6438  164.4703 C.ar    1  UNL1        0.0040
     11 C         141.0917  140.5933  164.3939 C.ar    1  UNL1        0.0113
     12 C         140.3249  140.3946  163.1201 C.3     1  UNL1        0.1213
     13 C         138.7912  139.9973  160.5725 C.3     1  UNL1        0.0704
     14 C         139.2145  138.5926  160.2603 C.3     1  UNL1        0.0087
     15 C         139.7774  138.5762  158.8700 C.3     1  UNL1        0.0005
     16 C         139.7019  139.9708  158.3229 C.3     1  UNL1        0.0005
     17 C         139.0925  140.8491  159.3751 C.3     1  UNL1        0.0095
     18 C         138.6692  142.2539  159.6873 C.3     1  UNL1        0.0162
     19 C         138.1063  142.2703  161.0776 C.3     1  UNL1        0.0544
     20 C         138.1818  140.8757  161.6247 C.3     1  UNL1        0.0243
     21 N         137.5633  143.4706  161.7949 N.3     1  UNL1       -0.2996
     22 H         136.6114  143.2386  162.0783 H       1  UNL1        0.1232
     23 C         138.2622  143.9956  163.0139 C.3     1  UNL1        0.0539
     24 C         137.7365  143.9542  164.4181 C.3     1  UNL1        0.0157
     25 C         138.7590  144.5872  165.3147 C.3     1  UNL1        0.0014
     26 C         139.9166  145.0199  164.4646 C.3     1  UNL1        0.0014
     27 C         139.6096  144.6543  163.0426 C.3     1  UNL1        0.0157
     28 C         143.9945  142.8929  165.8205 C.3     1  UNL1        0.4200
     29 F         145.0626  143.9434  165.8969 F       1  UNL1       -0.1658
     30 F         143.8982  142.8819  167.3173 F       1  UNL1       -0.1658
     31 F         144.0908  142.9039  164.3236 F       1  UNL1       -0.1658
@<TRIPOS>BOND
     1     1     2    2
     2     2     3   am
     3     3     4    1
     4     4     5    1
     5     5     6    1
     6     6     7   ar
     7     7     8   ar
     8     8     9   ar
     9     9    28    1
    10    28    29    1
    11    28    30    1
    12    28    31    1
    13     9    10   ar
    14    10    11   ar
    15    11    12    1
    16    13     2    1
    17    13    14    1
    18    14    15    1
    19    15    16    1
    20    17    16    1
    21    17    18    1
    22    18    19    1
    23    19    21    1
    24    21    23    1
    25    23    24    1
    26    24    25    1
    27    25    26    1
    28    26    27    1
    29    19    20    1
    30    12     3    1
    31    17    13    1
    32    27    23    1
    33    11     6   ar
    34    20    13    1
    35    21    22    1
@<TRIPOS>MOLECULE
*****
 31 35 0 0 0
SMALL
GASTEIGER

@<TRIPOS>ATOM
      1 O         141.3913  142.5272  160.1428 O.2     1  UNL1       -0.2749
      2 C         140.9888  142.5150  161.5877 C.2     1  UNL1        0.2250
      3 N         141.6562  141.5718  162.5443 N.am    1  UNL1       -0.2750
      4 C         142.7261  140.6407  162.0558 C.3     1  UNL1        0.1000
      5 C         143.3934  139.6975  163.0124 C.3     1  UNL1        0.0670
      6 C         142.9909  139.6853  164.4573 C.ar    1  UNL1        0.0583
      7 N         143.6583  138.7421  165.4138 N.ar    1  UNL1       -0.2484
      8 C         143.2558  138.7299  166.8588 C.ar    1  UNL1        0.1023
      9 C         142.1859  139.6610  167.3472 C.ar    1  UNL1        0.0902
     10 C         141.5186  140.6042  166.3907 C.ar    1  UNL1        0.0040
     11 C         141.9211  140.6164  164.9457 C.ar    1  UNL1        0.0113
     12 C         141.2538  141.5596  163.9892 C.3     1  UNL1        0.1213
     13 C         139.9190  143.4461  162.0762 C.3     1  UNL1        0.0704
     14 C         141.0378  144.2764  161.5205 C.3     1  UNL1        0.0087
     15 C         140.6595  145.7207  161.6656 C.3     1  UNL1        0.0005
     16 C         139.3068  145.7829  162.3108 C.3     1  UNL1        0.0005
     17 C         138.8492  144.3772  162.5646 C.3     1  UNL1        0.0095
     18 C         137.7303  143.5468  163.1202 C.3     1  UNL1        0.0162
     19 C         138.1087  142.1026  162.9752 C.3     1  UNL1        0.0544
     20 C         139.4614  142.0403  162.3299 C.3     1  UNL1        0.0243
     21 N         137.2798  140.9270  163.4007 N.3     1  UNL1       -0.2996
     22 H         136.8272  140.5664  162.5608 H       1  UNL1        0.1232
     23 C         137.9296  139.7572  164.0786 C.3     1  UNL1        0.0539
     24 C         138.5837  138.5936  163.3945 C.3     1  UNL1        0.0157
     25 C         139.0977  137.6629  164.4526 C.3     1  UNL1        0.0014
     26 C         138.7612  138.2515  165.7907 C.3     1  UNL1        0.0014
     27 C         138.0393  139.5458  165.5595 C.3     1  UNL1        0.0157
     28 C         141.7834  139.6488  168.7921 C.3     1  UNL1        0.4200
     29 F         141.3809  139.6366  170.2371 F       1  UNL1       -0.1658
     30 F         142.8449  138.6285  169.0792 F       1  UNL1       -0.1658
     31 F         140.7220  140.6690  168.5050 F       1  UNL1       -0.1658
@<TRIPOS>BOND
     1     1     2    2
     2     2     3   am
     3     3     4    1
     4     4     5    1
     5     5     6    1
     6     6     7   ar
     7     7     8   ar
     8     8     9   ar
     9     9    28    1
    10    28    29    1
    11    28    30    1
    12    28    31    1
    13     9    10   ar
    14    10    11   ar
    15    11    12    1
    16    13     2    1
    17    13    14    1
    18    14    15    1
    19    15    16    1
    20    17    16    1
    21    17    18    1
    22    18    19    1
    23    19    21    1
    24    21    23    1
    25    23    24    1
    26    24    25    1
    27    25    26    1
    28    26    27    1
    29    19    20    1
    30    12     3    1
    31    17    13    1
    32    27    23    1
    33    11     6   ar
    34    20    13    1
    35    21    22    1
@<TRIPOS>MOLECULE
*****
 31 35 0 0 0
SMALL
GASTEIGER

@<TRIPOS>ATOM
      1 O         140.9184  140.7780  167.3926 O.2     1  UNL1       -0.2749
      2 C         140.5978  140.5837  165.9402 C.2     1  UNL1        0.2250
      3 N         140.5647  141.7640  165.0150 N.am    1  UNL1       -0.2750
      4 C         140.8520  143.1386  165.5423 C.3     1  UNL1        0.1000
      5 C         140.8188  144.3188  164.6172 C.3     1  UNL1        0.0670
      6 C         140.4983  144.1245  163.1648 C.ar    1  UNL1        0.0583
      7 N         140.4651  145.3048  162.2396 N.ar    1  UNL1       -0.2484
      8 C         140.1446  145.1105  160.7872 C.ar    1  UNL1        0.1023
      9 C         139.8572  143.7359  160.2599 C.ar    1  UNL1        0.0902
     10 C         139.8904  142.5557  161.1851 C.ar    1  UNL1        0.0040
     11 C         140.2109  142.7500  162.6375 C.ar    1  UNL1        0.0113
     12 C         140.2441  141.5697  163.5626 C.3     1  UNL1        0.1213
     13 C         140.3105  139.2092  165.4129 C.3     1  UNL1        0.0704
     14 C         139.1459  139.6346  166.2571 C.3     1  UNL1        0.0087
     15 C         138.1387  138.5230  166.2515 C.3     1  UNL1        0.0005
     16 C         138.6809  137.4106  165.4039 C.3     1  UNL1        0.0005
     17 C         140.0231  137.8346  164.8856 C.3     1  UNL1        0.0095
     18 C         141.1877  137.4091  164.0415 C.3     1  UNL1        0.0162
     19 C         142.1949  138.5208  164.0470 C.3     1  UNL1        0.0544
     20 C         141.6527  139.6332  164.8946 C.3     1  UNL1        0.0243
     21 N         143.5128  138.5200  163.3307 N.3     1  UNL1       -0.2996
     22 H         143.3357  138.1717  162.3885 H       1  UNL1        0.1232
     23 C         144.2865  139.7964  163.1821 C.3     1  UNL1        0.0539
     24 C         145.3151  140.3206  164.1399 C.3     1  UNL1        0.0157
     25 C         145.8317  141.6209  163.5995 C.3     1  UNL1        0.0014
     26 C         145.1223  141.9005  162.3076 C.3     1  UNL1        0.0014
     27 C         144.1674  140.7729  162.0497 C.3     1  UNL1        0.0157
     28 C         139.5367  143.5416  158.8075 C.3     1  UNL1        0.4200
     29 F         139.2161  143.3473  157.3551 F       1  UNL1       -0.1658
     30 F         139.0377  142.1582  159.1027 F       1  UNL1       -0.1658
     31 F         140.0357  144.9250  158.5123 F       1  UNL1       -0.1658
@<TRIPOS>BOND
     1     1     2    2
     2     2     3   am
     3     3     4    1
     4     4     5    1
     5     5     6    1
     6     6     7   ar
     7     7     8   ar
     8     8     9   ar
     9     9    28    1
    10    28    29    1
    11    28    30    1
    12    28    31    1
    13     9    10   ar
    14    10    11   ar
    15    11    12    1
    16    13     2    1
    17    13    14    1
    18    14    15    1
    19    15    16    1
    20    17    16    1
    21    17    18    1
    22    18    19    1
    23    19    21    1
    24    21    23    1
    25    23    24    1
    26    24    25    1
    27    25    26    1
    28    26    27    1
    29    19    20    1
    30    12     3    1
    31    17    13    1
    32    27    23    1
    33    11     6   ar
    34    20    13    1
    35    21    22    1
