@<TRIPOS>MOLECULE
*****
 35 39 0 0 0
SMALL
GASTEIGER

@<TRIPOS>ATOM
      1 C         138.8283  139.1178  166.1387 C.3     1  UNL1        0.0002
      2 C         137.7731  138.7984  167.1558 C.3     1  UNL1        0.0001
      3 C         138.9561  139.6367  167.5403 C.3     1  UNL1        0.0037
      4 N         140.4346  138.7724  161.9494 N.pl3   1  UNL1       -0.2782
      5 C         140.7487  139.9843  162.7756 C.3     1  UNL1        0.0936
      6 C         140.2133  140.0994  164.1720 C.3     1  UNL1        0.0216
      7 C         139.3637  139.0027  164.7423 C.3     1  UNL1        0.0034
      8 C         139.0496  137.7908  163.9162 C.3     1  UNL1        0.0216
      9 C         139.5850  137.6756  162.5197 C.3     1  UNL1        0.0936
     10 C         142.0409  138.4270  157.7601 C.ar    1  UNL1        0.0457
     11 C         140.7609  139.1665  158.0139 C.ar    1  UNL1        0.1015
     12 N         140.2254  139.2816  159.4104 N.ar    1  UNL1       -0.2123
     13 C         140.9700  138.6572  160.5530 C.ar    1  UNL1        0.2202
     14 N         142.2501  137.9177  160.2992 N.ar    1  UNL1       -0.2123
     15 C         142.7856  137.8026  158.9027 C.ar    1  UNL1        0.1015
     16 C         142.5764  138.3118  156.3637 C.3     1  UNL1        0.1718
     17 C         144.1534  136.3989  155.5866 C.3     1  UNL1        0.1746
     18 O         143.9608  137.7827  156.1325 O.3     1  UNL1       -0.3462
     19 C         139.7128  140.4202  168.5715 C.3     1  UNL1        0.0473
     20 C         141.1859  140.1996  168.7490 C.3     1  UNL1        0.2054
     21 O         141.9619  139.4455  167.7103 O.3     1  UNL1       -0.4754
     22 C         142.7550  140.1912  166.6783 C.ar    1  UNL1        0.1408
     23 C         142.8141  141.6896  166.7163 C.ar    1  UNL1        0.0367
     24 C         143.6072  142.4353  165.6844 C.ar    1  UNL1        0.0016
     25 C         144.3411  141.6827  164.6144 C.ar    1  UNL1        0.0146
     26 C         144.2820  140.1843  164.5764 C.ar    1  UNL1        0.1396
     27 F         145.0159  139.4317  163.5063 F       1  UNL1       -0.2044
     28 C         143.4889  139.4386  165.6083 C.ar    1  UNL1        0.0662
     29 C         145.1342  142.4284  163.5824 C.3     1  UNL1        0.1138
     30 C         144.4282  143.2172  162.5197 C.2     1  UNL1        0.2301
     31 O         144.2306  144.6946  162.6889 O.2     1  UNL1       -0.2745
     32 N         143.9197  142.5288  161.2879 N.am    1  UNL1       -0.2791
     33 C         143.1912  142.9671  160.0521 C.3     1  UNL1        0.0952
     34 C         143.2006  141.5551  159.5459 C.3     1  UNL1        0.0430
     35 C         143.9290  141.1168  160.7817 C.3     1  UNL1        0.0952
@<TRIPOS>BOND
     1    17    18    1
     2    18    16    1
     3    16    10    1
     4    10    11   ar
     5    11    12   ar
     6    12    13   ar
     7    13     4    1
     8     4     5    1
     9     5     6    1
    10     6     7    1
    11     1     7    1
    12     1     2    1
    13     2     3    1
    14     3    19    1
    15    19    20    1
    16    20    21    1
    17    21    22    1
    18    22    23   ar
    19    23    24   ar
    20    24    25   ar
    21    25    29    1
    22    29    30    1
    23    30    31    2
    24    30    32   am
    25    32    33    1
    26    33    34    1
    27    34    35    1
    28    25    26   ar
    29    26    27    1
    30    26    28   ar
    31     7     8    1
    32     8     9    1
    33    13    14   ar
    34    14    15   ar
    35    15    10   ar
    36     9     4    1
    37     3     1    1
    38    28    22   ar
    39    35    32    1
@<TRIPOS>MOLECULE
*****
 35 39 0 0 0
SMALL
GASTEIGER

@<TRIPOS>ATOM
      1 C         138.7528  139.9055  165.9430 C.3     1  UNL1        0.0002
      2 C         138.1420  138.6792  166.5538 C.3     1  UNL1        0.0001
      3 C         138.8909  139.6526  167.4150 C.3     1  UNL1        0.0037
      4 N         139.5715  142.4676  162.3353 N.pl3   1  UNL1       -0.2782
      5 C         138.3209  142.6779  163.1363 C.3     1  UNL1        0.0936
      6 C         138.0480  141.8239  164.3389 C.3     1  UNL1        0.0216
      7 C         139.0257  140.7596  164.7404 C.3     1  UNL1        0.0034
      8 C         140.2763  140.5493  163.9394 C.3     1  UNL1        0.0216
      9 C         140.5493  141.4034  162.7369 C.3     1  UNL1        0.0936
     10 C         140.3903  145.0298  158.7277 C.ar    1  UNL1        0.0457
     11 C         139.8481  143.6420  158.5545 C.ar    1  UNL1        0.1015
     12 N         139.5751  142.7879  159.7571 N.ar    1  UNL1       -0.2123
     13 C         139.8445  143.3217  161.1328 C.ar    1  UNL1        0.2202
     14 N         140.3867  144.7095  161.3059 N.ar    1  UNL1       -0.2123
     15 C         140.6596  145.5635  160.1034 C.ar    1  UNL1        0.1015
     16 C         140.6632  145.8838  157.5251 C.3     1  UNL1        0.1718
     17 C         139.0165  147.4638  156.2834 C.3     1  UNL1        0.1746
     18 O         139.5920  146.0951  156.4966 O.3     1  UNL1       -0.3462
     19 C         139.4029  140.0686  168.7621 C.3     1  UNL1        0.0473
     20 C         140.8775  140.0674  169.0371 C.3     1  UNL1        0.2054
     21 O         141.7407  141.1725  168.5045 O.3     1  UNL1       -0.4754
     22 C         142.5221  140.9708  167.2400 C.ar    1  UNL1        0.1408
     23 C         142.7311  139.5869  166.7002 C.ar    1  UNL1        0.0367
     24 C         143.5124  139.3852  165.4358 C.ar    1  UNL1        0.0016
     25 C         144.0848  140.5672  164.7112 C.ar    1  UNL1        0.0146
     26 C         143.8758  141.9510  165.2510 C.ar    1  UNL1        0.1396
     27 F         144.4482  143.1331  164.5263 F       1  UNL1       -0.2044
     28 C         143.0944  142.1528  166.5154 C.ar    1  UNL1        0.0662
     29 C         144.8662  140.3655  163.4468 C.3     1  UNL1        0.1138
     30 C         144.1481  140.1358  162.1500 C.2     1  UNL1        0.2301
     31 O         143.7555  138.7455  161.7462 O.2     1  UNL1       -0.2745
     32 N         143.8227  141.2962  161.2571 N.am    1  UNL1       -0.2791
     33 C         143.1392  141.4555  159.9314 C.3     1  UNL1        0.0952
     34 C         143.3625  142.9374  159.9943 C.3     1  UNL1        0.0430
     35 C         144.0461  142.7782  161.3200 C.3     1  UNL1        0.0952
@<TRIPOS>BOND
     1    17    18    1
     2    18    16    1
     3    16    10    1
     4    10    11   ar
     5    11    12   ar
     6    12    13   ar
     7    13     4    1
     8     4     5    1
     9     5     6    1
    10     6     7    1
    11     1     7    1
    12     1     2    1
    13     2     3    1
    14     3    19    1
    15    19    20    1
    16    20    21    1
    17    21    22    1
    18    22    23   ar
    19    23    24   ar
    20    24    25   ar
    21    25    29    1
    22    29    30    1
    23    30    31    2
    24    30    32   am
    25    32    33    1
    26    33    34    1
    27    34    35    1
    28    25    26   ar
    29    26    27    1
    30    26    28   ar
    31     7     8    1
    32     8     9    1
    33    13    14   ar
    34    14    15   ar
    35    15    10   ar
    36     9     4    1
    37     3     1    1
    38    28    22   ar
    39    35    32    1
@<TRIPOS>MOLECULE
*****
 35 39 0 0 0
SMALL
GASTEIGER

@<TRIPOS>ATOM
      1 C         138.7781  139.0699  166.4715 C.3     1  UNL1        0.0002
      2 C         137.7233  138.7667  167.4941 C.3     1  UNL1        0.0001
      3 C         138.8793  139.6542  167.8493 C.3     1  UNL1        0.0037
      4 N         140.4297  138.5828  162.3140 N.pl3   1  UNL1       -0.2782
      5 C         139.8237  139.8897  162.7320 C.3     1  UNL1        0.0936
      6 C         139.2731  140.0520  164.1178 C.3     1  UNL1        0.0216
      7 C         139.3286  138.9075  165.0857 C.3     1  UNL1        0.0034
      8 C         139.9347  137.6006  164.6678 C.3     1  UNL1        0.0216
      9 C         140.4852  137.4383  163.2820 C.3     1  UNL1        0.0936
     10 C         142.0814  138.0957  158.1565 C.ar    1  UNL1        0.0457
     11 C         140.6221  138.3800  158.3553 C.ar    1  UNL1        0.1015
     12 N         140.0715  138.5424  159.7411 N.ar    1  UNL1       -0.2123
     13 C         140.9803  138.4204  160.9282 C.ar    1  UNL1        0.2202
     14 N         142.4396  138.1361  160.7295 N.ar    1  UNL1       -0.2123
     15 C         142.9901  137.9737  159.3436 C.ar    1  UNL1        0.1015
     16 C         142.6319  137.9333  156.7707 C.3     1  UNL1        0.1718
     17 C         143.3853  135.4748  156.3990 C.3     1  UNL1        0.1746
     18 O         143.7185  136.9333  156.5078 O.3     1  UNL1       -0.3462
     19 C         139.6050  140.5040  168.8498 C.3     1  UNL1        0.0473
     20 C         140.6329  139.8877  169.7520 C.3     1  UNL1        0.2054
     21 O         142.0879  139.9687  169.3965 O.3     1  UNL1       -0.4754
     22 C         142.5051  140.5176  168.0643 C.ar    1  UNL1        0.1408
     23 C         142.9235  141.9529  167.9422 C.ar    1  UNL1        0.0367
     24 C         143.3407  142.5018  166.6101 C.ar    1  UNL1        0.0016
     25 C         143.3395  141.6154  165.4001 C.ar    1  UNL1        0.0146
     26 C         142.9212  140.1801  165.5221 C.ar    1  UNL1        0.1396
     27 F         142.9201  139.2937  164.3120 F       1  UNL1       -0.2044
     28 C         142.5040  139.6312  166.8543 C.ar    1  UNL1        0.0662
     29 C         143.7568  142.1643  164.0679 C.3     1  UNL1        0.1138
     30 C         142.7451  142.3223  162.9717 C.2     1  UNL1        0.2301
     31 O         142.8081  141.4400  161.7601 O.2     1  UNL1       -0.2745
     32 N         141.6705  143.3624  163.0870 N.am    1  UNL1       -0.2791
     33 C         140.5234  143.8023  162.2264 C.3     1  UNL1        0.0952
     34 C         140.1509  144.8334  163.2501 C.3     1  UNL1        0.0430
     35 C         141.2980  144.3936  164.1107 C.3     1  UNL1        0.0952
@<TRIPOS>BOND
     1    17    18    1
     2    18    16    1
     3    16    10    1
     4    10    11   ar
     5    11    12   ar
     6    12    13   ar
     7    13     4    1
     8     4     5    1
     9     5     6    1
    10     6     7    1
    11     1     7    1
    12     1     2    1
    13     2     3    1
    14     3    19    1
    15    19    20    1
    16    20    21    1
    17    21    22    1
    18    22    23   ar
    19    23    24   ar
    20    24    25   ar
    21    25    29    1
    22    29    30    1
    23    30    31    2
    24    30    32   am
    25    32    33    1
    26    33    34    1
    27    34    35    1
    28    25    26   ar
    29    26    27    1
    30    26    28   ar
    31     7     8    1
    32     8     9    1
    33    13    14   ar
    34    14    15   ar
    35    15    10   ar
    36     9     4    1
    37     3     1    1
    38    28    22   ar
    39    35    32    1
@<TRIPOS>MOLECULE
*****
 35 39 0 0 0
SMALL
GASTEIGER

@<TRIPOS>ATOM
      1 C         138.8623  139.7603  165.5816 C.3     1  UNL1        0.0002
      2 C         138.1420  138.5444  166.0840 C.3     1  UNL1        0.0001
      3 C         138.8292  139.4621  167.0512 C.3     1  UNL1        0.0037
      4 N         140.1675  142.3830  162.1657 N.pl3   1  UNL1       -0.2782
      5 C         139.0426  142.8177  163.0577 C.3     1  UNL1        0.0936
      6 C         138.6076  141.9435  164.1963 C.3     1  UNL1        0.0216
      7 C         139.2974  140.6346  164.4429 C.3     1  UNL1        0.0034
      8 C         140.4222  140.1999  163.5509 C.3     1  UNL1        0.0216
      9 C         140.8573  141.0741  162.4123 C.3     1  UNL1        0.0936
     10 C         141.4726  145.0058  158.7499 C.ar    1  UNL1        0.0457
     11 C         142.2397  143.7579  159.0729 C.ar    1  UNL1        0.1015
     12 N         141.8047  142.8837  160.2115 N.ar    1  UNL1       -0.2123
     13 C         140.6025  143.2573  161.0271 C.ar    1  UNL1        0.2202
     14 N         139.8354  144.5051  160.7041 N.ar    1  UNL1       -0.2123
     15 C         140.2705  145.3794  159.5654 C.ar    1  UNL1        0.1015
     16 C         141.9077  145.8800  157.6113 C.3     1  UNL1        0.1718
     17 C         142.5554  144.8904  155.2980 C.3     1  UNL1        0.1746
     18 O         141.5374  145.5177  156.2036 O.3     1  UNL1       -0.3462
     19 C         139.2068  139.8197  168.4581 C.3     1  UNL1        0.0473
     20 C         140.4459  140.6233  168.7209 C.3     1  UNL1        0.2054
     21 O         140.8315  141.7335  167.7890 O.3     1  UNL1       -0.4754
     22 C         141.8974  141.5106  166.7573 C.ar    1  UNL1        0.1408
     23 C         142.3385  142.6429  165.8779 C.ar    1  UNL1        0.0367
     24 C         143.4043  142.4201  164.8462 C.ar    1  UNL1        0.0016
     25 C         144.0290  141.0650  164.6940 C.ar    1  UNL1        0.0146
     26 C         143.5880  139.9327  165.5734 C.ar    1  UNL1        0.1396
     27 F         144.2128  138.5775  165.4211 F       1  UNL1       -0.2044
     28 C         142.5222  140.1555  166.6050 C.ar    1  UNL1        0.0662
     29 C         145.0949  140.8421  163.6623 C.3     1  UNL1        0.1138
     30 C         144.7464  140.8791  162.2038 C.2     1  UNL1        0.2301
     31 O         145.0174  142.1157  161.3991 O.2     1  UNL1       -0.2745
     32 N         144.1270  139.6797  161.5500 N.am    1  UNL1       -0.2791
     33 C         143.6573  139.3515  160.1637 C.3     1  UNL1        0.0952
     34 C         143.2510  137.9833  160.6254 C.3     1  UNL1        0.0430
     35 C         143.7206  138.3115  162.0117 C.3     1  UNL1        0.0952
@<TRIPOS>BOND
     1    17    18    1
     2    18    16    1
     3    16    10    1
     4    10    11   ar
     5    11    12   ar
     6    12    13   ar
     7    13     4    1
     8     4     5    1
     9     5     6    1
    10     6     7    1
    11     1     7    1
    12     1     2    1
    13     2     3    1
    14     3    19    1
    15    19    20    1
    16    20    21    1
    17    21    22    1
    18    22    23   ar
    19    23    24   ar
    20    24    25   ar
    21    25    29    1
    22    29    30    1
    23    30    31    2
    24    30    32   am
    25    32    33    1
    26    33    34    1
    27    34    35    1
    28    25    26   ar
    29    26    27    1
    30    26    28   ar
    31     7     8    1
    32     8     9    1
    33    13    14   ar
    34    14    15   ar
    35    15    10   ar
    36     9     4    1
    37     3     1    1
    38    28    22   ar
    39    35    32    1
@<TRIPOS>MOLECULE
*****
 35 39 0 0 0
SMALL
GASTEIGER

@<TRIPOS>ATOM
      1 C         138.6720  139.6777  165.5462 C.3     1  UNL1        0.0002
      2 C         138.0789  138.4765  166.2211 C.3     1  UNL1        0.0001
      3 C         138.8458  139.4854  167.0236 C.3     1  UNL1        0.0037
      4 N         139.3984  142.0912  161.8183 N.pl3   1  UNL1       -0.2782
      5 C         138.0081  141.9551  162.3647 C.3     1  UNL1        0.0936
      6 C         137.7660  141.1506  163.6073 C.3     1  UNL1        0.0216
      7 C         138.9142  140.4822  164.3036 C.3     1  UNL1        0.0034
      8 C         140.3044  140.6183  163.7573 C.3     1  UNL1        0.0216
      9 C         140.5466  141.4228  162.5146 C.3     1  UNL1        0.0936
     10 C         140.1247  144.5048  158.0904 C.ar    1  UNL1        0.0457
     11 C         140.0848  145.1835  159.4275 C.ar    1  UNL1        0.1015
     12 N         139.8427  144.3790  160.6701 N.ar    1  UNL1       -0.2123
     13 C         139.6405  142.8957  160.5757 C.ar    1  UNL1        0.2202
     14 N         139.6805  142.2170  159.2387 N.ar    1  UNL1       -0.2123
     15 C         139.9226  143.0215  157.9961 C.ar    1  UNL1        0.1015
     16 C         140.3669  145.3093  156.8478 C.3     1  UNL1        0.1718
     17 C         138.8983  147.2125  155.8625 C.3     1  UNL1        0.1746
     18 O         139.9742  146.7563  156.8028 O.3     1  UNL1       -0.3462
     19 C         139.3888  139.9568  168.3400 C.3     1  UNL1        0.0473
     20 C         140.8018  140.4515  168.4346 C.3     1  UNL1        0.2054
     21 O         141.9064  139.7014  167.7511 O.3     1  UNL1       -0.4754
     22 C         142.7219  140.3729  166.6861 C.ar    1  UNL1        0.1408
     23 C         142.9020  141.8619  166.7066 C.ar    1  UNL1        0.0367
     24 C         143.7175  142.5334  165.6416 C.ar    1  UNL1        0.0016
     25 C         144.3527  141.7159  164.5563 C.ar    1  UNL1        0.0146
     26 C         144.1726  140.2269  164.5358 C.ar    1  UNL1        0.1396
     27 F         144.8079  139.4094  163.4503 F       1  UNL1       -0.2044
     28 C         143.3571  139.5554  165.6007 C.ar    1  UNL1        0.0662
     29 C         145.1682  142.3874  163.4913 C.3     1  UNL1        0.1138
     30 C         144.4886  143.1807  162.4147 C.2     1  UNL1        0.2301
     31 O         144.3460  144.6673  162.5552 O.2     1  UNL1       -0.2745
     32 N         143.9517  142.4874  161.1978 N.am    1  UNL1       -0.2791
     33 C         143.2364  142.9279  159.9551 C.3     1  UNL1        0.0952
     34 C         143.1925  141.5068  159.4768 C.3     1  UNL1        0.0430
     35 C         143.9078  141.0663  160.7195 C.3     1  UNL1        0.0952
@<TRIPOS>BOND
     1    17    18    1
     2    18    16    1
     3    16    10    1
     4    10    11   ar
     5    11    12   ar
     6    12    13   ar
     7    13     4    1
     8     4     5    1
     9     5     6    1
    10     6     7    1
    11     1     7    1
    12     1     2    1
    13     2     3    1
    14     3    19    1
    15    19    20    1
    16    20    21    1
    17    21    22    1
    18    22    23   ar
    19    23    24   ar
    20    24    25   ar
    21    25    29    1
    22    29    30    1
    23    30    31    2
    24    30    32   am
    25    32    33    1
    26    33    34    1
    27    34    35    1
    28    25    26   ar
    29    26    27    1
    30    26    28   ar
    31     7     8    1
    32     8     9    1
    33    13    14   ar
    34    14    15   ar
    35    15    10   ar
    36     9     4    1
    37     3     1    1
    38    28    22   ar
    39    35    32    1
@<TRIPOS>MOLECULE
*****
 35 39 0 0 0
SMALL
GASTEIGER

@<TRIPOS>ATOM
      1 C         142.3682  139.5597  168.7136 C.3     1  UNL1        0.0002
      2 C         142.7447  138.8283  169.9679 C.3     1  UNL1        0.0001
      3 C         141.4488  139.5805  169.8985 C.3     1  UNL1        0.0037
      4 N         143.3087  140.7903  164.4885 N.pl3   1  UNL1       -0.2782
      5 C         143.3081  141.8136  165.5852 C.3     1  UNL1        0.0936
      6 C         142.9946  141.4034  166.9936 C.3     1  UNL1        0.0216
      7 C         142.6817  139.9699  167.3052 C.3     1  UNL1        0.0034
      8 C         142.6823  138.9466  166.2085 C.3     1  UNL1        0.0216
      9 C         142.9958  139.3568  164.8002 C.3     1  UNL1        0.0936
     10 C         144.2492  142.0209  160.2635 C.ar    1  UNL1        0.0457
     11 C         144.2302  143.0474  161.3570 C.ar    1  UNL1        0.1015
     12 N         143.9167  142.6372  162.7654 N.ar    1  UNL1       -0.2123
     13 C         143.6222  141.2005  163.0802 C.ar    1  UNL1        0.2202
     14 N         143.6413  140.1740  161.9866 N.ar    1  UNL1       -0.2123
     15 C         143.9548  140.5842  160.5783 C.ar    1  UNL1        0.1015
     16 C         144.5627  142.4311  158.8551 C.3     1  UNL1        0.1718
     17 C         143.9474  142.4423  156.3310 C.3     1  UNL1        0.1746
     18 O         143.5815  142.1499  157.7560 O.3     1  UNL1       -0.3462
     19 C         140.1698  140.0268  170.5426 C.3     1  UNL1        0.0473
     20 C         138.9711  140.3353  169.6952 C.3     1  UNL1        0.2054
     21 O         138.4979  139.3422  168.6755 O.3     1  UNL1       -0.4754
     22 C         138.7909  139.5633  167.2210 C.ar    1  UNL1        0.1408
     23 C         139.3681  140.8696  166.7624 C.ar    1  UNL1        0.0367
     24 C         139.6610  141.0908  165.3080 C.ar    1  UNL1        0.0016
     25 C         139.3768  140.0056  164.3123 C.ar    1  UNL1        0.0146
     26 C         138.7996  138.6992  164.7710 C.ar    1  UNL1        0.1396
     27 F         138.5154  137.6140  163.7751 F       1  UNL1       -0.2044
     28 C         138.5067  138.4781  166.2253 C.ar    1  UNL1        0.0662
     29 C         139.6698  140.2266  162.8578 C.3     1  UNL1        0.1138
     30 C         138.7225  141.0286  162.0155 C.2     1  UNL1        0.2301
     31 O         137.2673  141.0895  162.3743 O.2     1  UNL1       -0.2745
     32 N         139.2305  141.7698  160.8144 N.am    1  UNL1       -0.2791
     33 C         138.6089  142.6461  159.7676 C.3     1  UNL1        0.0952
     34 C         139.9489  142.8178  159.1158 C.3     1  UNL1        0.0430
     35 C         140.5705  141.9415  160.1625 C.3     1  UNL1        0.0952
@<TRIPOS>BOND
     1    17    18    1
     2    18    16    1
     3    16    10    1
     4    10    11   ar
     5    11    12   ar
     6    12    13   ar
     7    13     4    1
     8     4     5    1
     9     5     6    1
    10     6     7    1
    11     1     7    1
    12     1     2    1
    13     2     3    1
    14     3    19    1
    15    19    20    1
    16    20    21    1
    17    21    22    1
    18    22    23   ar
    19    23    24   ar
    20    24    25   ar
    21    25    29    1
    22    29    30    1
    23    30    31    2
    24    30    32   am
    25    32    33    1
    26    33    34    1
    27    34    35    1
    28    25    26   ar
    29    26    27    1
    30    26    28   ar
    31     7     8    1
    32     8     9    1
    33    13    14   ar
    34    14    15   ar
    35    15    10   ar
    36     9     4    1
    37     3     1    1
    38    28    22   ar
    39    35    32    1
@<TRIPOS>MOLECULE
*****
 35 39 0 0 0
SMALL
GASTEIGER

@<TRIPOS>ATOM
      1 C         143.8059  141.5885  159.8453 C.3     1  UNL1        0.0002
      2 C         144.5553  142.3250  158.7749 C.3     1  UNL1        0.0001
      3 C         143.6408  141.1943  158.4075 C.3     1  UNL1        0.0037
      4 N         142.7939  140.9956  164.1898 N.pl3   1  UNL1       -0.2782
      5 C         141.7337  141.4410  163.2267 C.3     1  UNL1        0.0936
      6 C         142.0710  141.6387  161.7786 C.3     1  UNL1        0.0216
      7 C         143.4686  141.3909  161.2935 C.3     1  UNL1        0.0034
      8 C         144.5288  140.9455  162.2565 C.3     1  UNL1        0.0216
      9 C         144.1915  140.7478  163.7047 C.3     1  UNL1        0.0936
     10 C         141.7819  140.4027  168.5342 C.ar    1  UNL1        0.0457
     11 C         142.5996  139.3763  167.8078 C.ar    1  UNL1        0.1015
     12 N         142.9369  139.5740  166.3596 N.ar    1  UNL1       -0.2123
     13 C         142.4565  140.7980  165.6379 C.ar    1  UNL1        0.2202
     14 N         141.6388  141.8244  166.3644 N.ar    1  UNL1       -0.2123
     15 C         141.3015  141.6268  167.8125 C.ar    1  UNL1        0.1015
     16 C         141.4445  140.2051  169.9824 C.3     1  UNL1        0.1718
     17 C         138.8469  140.2503  169.9793 C.3     1  UNL1        0.1746
     18 O         140.1341  139.5864  170.3695 O.3     1  UNL1       -0.3462
     19 C         143.0175  140.3138  157.3653 C.3     1  UNL1        0.0473
     20 C         142.8977  138.8378  157.6044 C.3     1  UNL1        0.2054
     21 O         143.2462  138.2646  158.9460 O.3     1  UNL1       -0.4754
     22 C         142.2066  138.1959  160.0253 C.ar    1  UNL1        0.1408
     23 C         140.7699  138.4808  159.7019 C.ar    1  UNL1        0.0367
     24 C         139.7304  138.4121  160.7810 C.ar    1  UNL1        0.0016
     25 C         140.1276  138.0583  162.1835 C.ar    1  UNL1        0.0146
     26 C         141.5643  137.7734  162.5069 C.ar    1  UNL1        0.1396
     27 F         141.9615  137.4196  163.9095 F       1  UNL1       -0.2044
     28 C         142.6038  137.8421  161.4278 C.ar    1  UNL1        0.0662
     29 C         139.0880  137.9896  163.2628 C.3     1  UNL1        0.1138
     30 C         138.9915  139.0858  164.2821 C.2     1  UNL1        0.2301
     31 O         139.5183  138.8683  165.6696 O.2     1  UNL1       -0.2745
     32 N         138.3682  140.3995  163.9138 N.am    1  UNL1       -0.2791
     33 C         138.1031  141.6872  164.6360 C.3     1  UNL1        0.0952
     34 C         137.4867  142.2574  163.3930 C.3     1  UNL1        0.0430
     35 C         137.7518  140.9697  162.6708 C.3     1  UNL1        0.0952
@<TRIPOS>BOND
     1    17    18    1
     2    18    16    1
     3    16    10    1
     4    10    11   ar
     5    11    12   ar
     6    12    13   ar
     7    13     4    1
     8     4     5    1
     9     5     6    1
    10     6     7    1
    11     1     7    1
    12     1     2    1
    13     2     3    1
    14     3    19    1
    15    19    20    1
    16    20    21    1
    17    21    22    1
    18    22    23   ar
    19    23    24   ar
    20    24    25   ar
    21    25    29    1
    22    29    30    1
    23    30    31    2
    24    30    32   am
    25    32    33    1
    26    33    34    1
    27    34    35    1
    28    25    26   ar
    29    26    27    1
    30    26    28   ar
    31     7     8    1
    32     8     9    1
    33    13    14   ar
    34    14    15   ar
    35    15    10   ar
    36     9     4    1
    37     3     1    1
    38    28    22   ar
    39    35    32    1
@<TRIPOS>MOLECULE
*****
 35 39 0 0 0
SMALL
GASTEIGER

@<TRIPOS>ATOM
      1 C         143.8154  142.5921  159.9496 C.3     1  UNL1        0.0002
      2 C         144.5735  142.4277  158.6657 C.3     1  UNL1        0.0001
      3 C         143.3701  143.3218  158.7170 C.3     1  UNL1        0.0037
      4 N         143.2736  141.6129  164.3082 N.pl3   1  UNL1       -0.2782
      5 C         144.2707  142.6532  163.8915 C.3     1  UNL1        0.0936
      6 C         144.4513  142.9796  162.4386 C.3     1  UNL1        0.0216
      7 C         143.6348  142.2657  161.4024 C.3     1  UNL1        0.0034
      8 C         142.6378  141.2254  161.8191 C.3     1  UNL1        0.0216
      9 C         142.4572  140.8991  163.2720 C.3     1  UNL1        0.0936
     10 C         142.7318  140.6338  168.6668 C.ar    1  UNL1        0.0457
     11 C         142.6635  139.5434  167.6391 C.ar    1  UNL1        0.1015
     12 N         142.8441  139.8698  166.1862 N.ar    1  UNL1       -0.2123
     13 C         143.0930  141.2865  165.7611 C.ar    1  UNL1        0.2202
     14 N         143.1613  142.3769  166.7888 N.ar    1  UNL1       -0.2123
     15 C         142.9807  142.0505  168.2417 C.ar    1  UNL1        0.1015
     16 C         142.5512  140.3074  170.1197 C.3     1  UNL1        0.1718
     17 C         139.9923  140.1122  170.5242 C.3     1  UNL1        0.1746
     18 O         141.3123  140.7509  170.8397 O.3     1  UNL1       -0.3462
     19 C         142.4183  144.2592  158.0349 C.3     1  UNL1        0.0473
     20 C         141.4048  145.0165  158.8407 C.3     1  UNL1        0.2054
     21 O         141.6406  145.2635  160.3013 O.3     1  UNL1       -0.4754
     22 C         140.8484  144.5084  161.3272 C.ar    1  UNL1        0.1408
     23 C         139.7595  143.5722  160.8939 C.ar    1  UNL1        0.0367
     24 C         138.9673  142.8171  161.9196 C.ar    1  UNL1        0.0016
     25 C         139.2641  142.9982  163.3788 C.ar    1  UNL1        0.0146
     26 C         140.3530  143.9345  163.8121 C.ar    1  UNL1        0.1396
     27 F         140.6497  144.1156  165.2713 F       1  UNL1       -0.2044
     28 C         141.1451  144.6896  162.7863 C.ar    1  UNL1        0.0662
     29 C         138.4719  142.2431  164.4046 C.3     1  UNL1        0.1138
     30 C         139.0813  141.0646  165.1044 C.2     1  UNL1        0.2301
     31 O         139.6916  141.2332  166.4643 O.2     1  UNL1       -0.2745
     32 N         139.0804  139.7177  164.4444 N.am    1  UNL1       -0.2791
     33 C         139.5778  138.3529  164.8186 C.3     1  UNL1        0.0952
     34 C         139.0792  137.8128  163.5110 C.3     1  UNL1        0.0430
     35 C         138.5818  139.1776  163.1368 C.3     1  UNL1        0.0952
@<TRIPOS>BOND
     1    17    18    1
     2    18    16    1
     3    16    10    1
     4    10    11   ar
     5    11    12   ar
     6    12    13   ar
     7    13     4    1
     8     4     5    1
     9     5     6    1
    10     6     7    1
    11     1     7    1
    12     1     2    1
    13     2     3    1
    14     3    19    1
    15    19    20    1
    16    20    21    1
    17    21    22    1
    18    22    23   ar
    19    23    24   ar
    20    24    25   ar
    21    25    29    1
    22    29    30    1
    23    30    31    2
    24    30    32   am
    25    32    33    1
    26    33    34    1
    27    34    35    1
    28    25    26   ar
    29    26    27    1
    30    26    28   ar
    31     7     8    1
    32     8     9    1
    33    13    14   ar
    34    14    15   ar
    35    15    10   ar
    36     9     4    1
    37     3     1    1
    38    28    22   ar
    39    35    32    1
@<TRIPOS>MOLECULE
*****
 35 39 0 0 0
SMALL
GASTEIGER

@<TRIPOS>ATOM
      1 C         143.0912  141.3698  168.2432 C.3     1  UNL1        0.0002
      2 C         143.5976  142.0918  169.4565 C.3     1  UNL1        0.0001
      3 C         142.5299  141.0476  169.5964 C.3     1  UNL1        0.0037
      4 N         143.1861  140.6772  163.7979 N.pl3   1  UNL1       -0.2782
      5 C         143.4708  142.0423  164.3505 C.3     1  UNL1        0.0936
      6 C         143.4392  142.2731  165.8322 C.3     1  UNL1        0.0216
      7 C         143.1228  141.1389  166.7614 C.3     1  UNL1        0.0034
      8 C         142.8381  139.7738  166.2088 C.3     1  UNL1        0.0216
      9 C         142.8698  139.5430  164.7270 C.3     1  UNL1        0.0936
     10 C         143.2811  139.9846  159.3525 C.ar    1  UNL1        0.0457
     11 C         142.5282  141.1544  159.9134 C.ar    1  UNL1        0.1015
     12 N         142.4965  141.3852  161.3951 N.ar    1  UNL1       -0.2123
     13 C         143.2178  140.4463  162.3161 C.ar    1  UNL1        0.2202
     14 N         143.9707  139.2765  161.7552 N.ar    1  UNL1       -0.2123
     15 C         144.0023  139.0456  160.2734 C.ar    1  UNL1        0.1015
     16 C         143.3127  139.7537  157.8707 C.3     1  UNL1        0.1718
     17 C         141.2960  138.1240  157.7071 C.3     1  UNL1        0.1746
     18 O         142.6800  138.5241  157.2895 O.3     1  UNL1       -0.3462
     19 C         141.5894  140.2588  170.4584 C.3     1  UNL1        0.0473
     20 C         140.1113  140.4991  170.3708 C.3     1  UNL1        0.2054
     21 O         139.2837  139.7306  169.3837 O.3     1  UNL1       -0.4754
     22 C         139.3312  140.0863  167.9272 C.ar    1  UNL1        0.1408
     23 C         139.6841  141.4825  167.5073 C.ar    1  UNL1        0.0367
     24 C         139.7316  141.8383  166.0509 C.ar    1  UNL1        0.0016
     25 C         139.4262  140.7979  165.0144 C.ar    1  UNL1        0.0146
     26 C         139.0734  139.4018  165.4343 C.ar    1  UNL1        0.1396
     27 F         138.7680  138.3614  164.3977 F       1  UNL1       -0.2044
     28 C         139.0259  139.0460  166.8907 C.ar    1  UNL1        0.0662
     29 C         139.4737  141.1537  163.5579 C.3     1  UNL1        0.1138
     30 C         138.7121  142.3424  163.0510 C.2     1  UNL1        0.2301
     31 O         137.2619  142.2066  162.6922 O.2     1  UNL1       -0.2745
     32 N         139.4005  143.6667  162.9030 N.am    1  UNL1       -0.2791
     33 C         138.9844  145.0331  162.4448 C.3     1  UNL1        0.0952
     34 C         140.3742  145.5397  162.6936 C.3     1  UNL1        0.0430
     35 C         140.7904  144.1733  163.1517 C.3     1  UNL1        0.0952
@<TRIPOS>BOND
     1    17    18    1
     2    18    16    1
     3    16    10    1
     4    10    11   ar
     5    11    12   ar
     6    12    13   ar
     7    13     4    1
     8     4     5    1
     9     5     6    1
    10     6     7    1
    11     1     7    1
    12     1     2    1
    13     2     3    1
    14     3    19    1
    15    19    20    1
    16    20    21    1
    17    21    22    1
    18    22    23   ar
    19    23    24   ar
    20    24    25   ar
    21    25    29    1
    22    29    30    1
    23    30    31    2
    24    30    32   am
    25    32    33    1
    26    33    34    1
    27    34    35    1
    28    25    26   ar
    29    26    27    1
    30    26    28   ar
    31     7     8    1
    32     8     9    1
    33    13    14   ar
    34    14    15   ar
    35    15    10   ar
    36     9     4    1
    37     3     1    1
    38    28    22   ar
    39    35    32    1
