@<TRIPOS>MOLECULE
*****
 19 20 0 0 0
SMALL
GASTEIGER

@<TRIPOS>ATOM
      1 C         139.0150  139.8047  166.5677 C.2     1  UNL1        0.1535
      2 N         138.9384  139.4432  168.0215 N.2     1  UNL1       -0.2470
      3 C         140.0649  140.1344  168.7310 C.3     1  UNL1        0.1723
      4 C         140.8377  140.9231  167.7157 C.3     1  UNL1        0.1938
      5 O         142.0323  141.7249  168.1398 O.3     1  UNL1       -0.3399
      6 C         142.4542  141.7380  169.5793 C.3     1  UNL1        0.1803
      7 C         141.6814  140.9494  170.5945 C.3     1  UNL1        0.2189
      8 F         142.1032  140.9625  172.0339 F       1  UNL1       -0.2319
      9 C         140.4867  140.1476  170.1704 C.3     1  UNL1        0.1711
     10 O         139.7139  139.3589  171.1857 O.3     1  UNL1       -0.3796
     11 S         140.1888  140.7193  166.3787 S.3     1  UNL1       -0.0497
     12 H         140.1163  139.4758  172.0605 H       1  UNL1        0.2105
     13 C         143.6488  142.5398  170.0034 C.3     1  UNL1        0.1696
     14 O         143.4880  143.6645  170.9827 O.3     1  UNL1       -0.3794
     15 H         142.9541  144.3683  170.5820 H       1  UNL1        0.2105
     16 N         138.0818  139.3342  165.4918 N.pl3   1  UNL1       -0.3135
     17 H         137.1080  139.3841  165.6283 H       1  UNL1        0.1487
     18 C         139.5615  137.6105  164.2311 C.3     1  UNL1        0.0230
     19 C         138.6320  138.7876  164.2079 C.3     1  UNL1        0.0887
@<TRIPOS>BOND
     1    18    19    1
     2    19    16    1
     3    16     1    1
     4     1     2    2
     5     3     2    1
     6     3     4    1
     7     4     5    1
     8     5     6    1
     9     6    13    1
    10    13    14    1
    11     6     7    1
    12     7     8    1
    13     7     9    1
    14     9    10    1
    15     4    11    1
    16    11     1    1
    17     9     3    1
    18    16    17    1
    19    14    15    1
    20    10    12    1
@<TRIPOS>MOLECULE
*****
 19 20 0 0 0
SMALL
GASTEIGER

@<TRIPOS>ATOM
      1 C         140.0914  140.7557  169.3109 C.2     1  UNL1        0.1535
      2 N         138.9288  139.9407  168.8271 N.2     1  UNL1       -0.2470
      3 C         139.2762  139.3956  167.4735 C.3     1  UNL1        0.1723
      4 C         140.6535  139.8738  167.1207 C.3     1  UNL1        0.1938
      5 O         141.2708  139.4820  165.8110 O.3     1  UNL1       -0.3399
      6 C         140.5109  138.6120  164.8541 C.3     1  UNL1        0.1803
      7 C         139.1336  138.1338  165.2068 C.3     1  UNL1        0.2189
      8 F         138.3737  137.2639  164.2499 F       1  UNL1       -0.2319
      9 C         138.5163  138.5257  166.5166 C.3     1  UNL1        0.1711
     10 O         137.1390  138.0475  166.8694 O.3     1  UNL1       -0.3796
     11 S         141.1573  140.7144  168.2563 S.3     1  UNL1       -0.0497
     12 H         136.7919  137.5003  166.1476 H       1  UNL1        0.2105
     13 C         141.1283  138.2202  163.5444 C.3     1  UNL1        0.1696
     14 O         141.2107  136.7734  163.1571 O.3     1  UNL1       -0.3794
     15 H         141.8090  136.3099  163.7637 H       1  UNL1        0.2105
     16 N         140.1737  141.4842  170.6195 N.pl3   1  UNL1       -0.3135
     17 H         140.5187  141.0238  171.4184 H       1  UNL1        0.1487
     18 C         140.4513  143.9742  169.9320 C.3     1  UNL1        0.0230
     19 C         139.7304  142.9143  170.7110 C.3     1  UNL1        0.0887
@<TRIPOS>BOND
     1    18    19    1
     2    19    16    1
     3    16     1    1
     4     1     2    2
     5     3     2    1
     6     3     4    1
     7     4     5    1
     8     5     6    1
     9     6    13    1
    10    13    14    1
    11     6     7    1
    12     7     8    1
    13     7     9    1
    14     9    10    1
    15     4    11    1
    16    11     1    1
    17     9     3    1
    18    16    17    1
    19    14    15    1
    20    10    12    1
@<TRIPOS>MOLECULE
*****
 19 20 0 0 0
SMALL
GASTEIGER

@<TRIPOS>ATOM
      1 C         138.4905  140.8195  165.1848 C.2     1  UNL1        0.1535
      2 N         137.8481  141.8670  164.3246 N.2     1  UNL1       -0.2470
      3 C         138.8752  142.9203  164.0319 C.3     1  UNL1        0.1723
      4 C         140.1524  142.5237  164.7112 C.3     1  UNL1        0.1938
      5 O         141.3669  143.3961  164.5932 O.3     1  UNL1       -0.3399
      6 C         141.3042  144.6652  163.7959 C.3     1  UNL1        0.1803
      7 C         140.0270  145.0618  163.1166 C.3     1  UNL1        0.2189
      8 F         139.9642  146.3307  162.3193 F       1  UNL1       -0.2319
      9 C         138.8124  144.1893  163.2346 C.3     1  UNL1        0.1711
     10 O         137.5352  144.5859  162.5553 O.3     1  UNL1       -0.3796
     11 S         139.9147  141.2254  165.4237 S.3     1  UNL1       -0.0497
     12 H         137.6653  145.4251  162.0867 H       1  UNL1        0.2105
     13 C         142.5186  145.5376  163.6779 C.3     1  UNL1        0.1696
     14 O         143.5365  145.2656  162.6102 O.3     1  UNL1       -0.3794
     15 H         143.9654  144.4127  162.7821 H       1  UNL1        0.2105
     16 N         137.8256  139.5831  165.7132 N.pl3   1  UNL1       -0.3135
     17 H         136.9101  139.6316  166.0720 H       1  UNL1        0.1487
     18 C         139.0024  137.6813  164.3911 C.3     1  UNL1        0.0230
     19 C         138.5555  138.2728  165.6951 C.3     1  UNL1        0.0887
@<TRIPOS>BOND
     1    18    19    1
     2    19    16    1
     3    16     1    1
     4     1     2    2
     5     3     2    1
     6     3     4    1
     7     4     5    1
     8     5     6    1
     9     6    13    1
    10    13    14    1
    11     6     7    1
    12     7     8    1
    13     7     9    1
    14     9    10    1
    15     4    11    1
    16    11     1    1
    17     9     3    1
    18    16    17    1
    19    14    15    1
    20    10    12    1
@<TRIPOS>MOLECULE
*****
 19 20 0 0 0
SMALL
GASTEIGER

@<TRIPOS>ATOM
      1 C         142.1491  139.1057  166.5367 C.2     1  UNL1        0.1535
      2 N         142.2173  138.1682  165.3678 N.2     1  UNL1       -0.2470
      3 C         141.1089  138.5248  164.4221 C.3     1  UNL1        0.1723
      4 C         140.3556  139.6828  165.0066 C.3     1  UNL1        0.1938
      5 O         139.1817  140.2608  164.2733 O.3     1  UNL1       -0.3399
      6 C         138.7609  139.6807  162.9555 C.3     1  UNL1        0.1803
      7 C         139.5142  138.5228  162.3710 C.3     1  UNL1        0.2189
      8 F         139.0936  137.9427  161.0532 F       1  UNL1       -0.2319
      9 C         140.6882  137.9448  163.1043 C.3     1  UNL1        0.1711
     10 O         141.4415  136.7868  162.5198 O.3     1  UNL1       -0.3796
     11 S         140.9985  140.0418  166.3135 S.3     1  UNL1       -0.0497
     12 H         141.0426  136.5365  161.6719 H       1  UNL1        0.2105
     13 C         137.5870  140.2587  162.2222 C.3     1  UNL1        0.1696
     14 O         136.6721  141.2250  162.9145 O.3     1  UNL1       -0.3794
     15 H         136.2064  140.7705  163.6339 H       1  UNL1        0.2105
     16 N         143.0698  139.1069  167.7209 N.pl3   1  UNL1       -0.3135
     17 H         143.8908  138.5638  167.7066 H       1  UNL1        0.1487
     18 C         141.9145  139.3514  170.0351 C.3     1  UNL1        0.0230
     19 C         142.7395  139.9354  168.9268 C.3     1  UNL1        0.0887
@<TRIPOS>BOND
     1    18    19    1
     2    19    16    1
     3    16     1    1
     4     1     2    2
     5     3     2    1
     6     3     4    1
     7     4     5    1
     8     5     6    1
     9     6    13    1
    10    13    14    1
    11     6     7    1
    12     7     8    1
    13     7     9    1
    14     9    10    1
    15     4    11    1
    16    11     1    1
    17     9     3    1
    18    16    17    1
    19    14    15    1
    20    10    12    1
@<TRIPOS>MOLECULE
*****
 19 20 0 0 0
SMALL
GASTEIGER

@<TRIPOS>ATOM
      1 C         142.4313  143.9156  161.7949 C.2     1  UNL1        0.1535
      2 N         143.8536  143.5227  162.0648 N.2     1  UNL1       -0.2470
      3 C         143.8407  142.2384  162.8396 C.3     1  UNL1        0.1723
      4 C         142.4105  141.8375  163.0486 C.3     1  UNL1        0.1938
      5 O         142.0860  140.5804  163.7998 O.3     1  UNL1       -0.3399
      6 C         143.1919  139.7241  164.3420 C.3     1  UNL1        0.1803
      7 C         144.6221  140.1250  164.1330 C.3     1  UNL1        0.2189
      8 F         145.7279  139.2688  164.6752 F       1  UNL1       -0.2319
      9 C         144.9465  141.3822  163.3818 C.3     1  UNL1        0.1711
     10 O         146.3768  141.7831  163.1728 O.3     1  UNL1       -0.3796
     11 S         141.5394  142.8741  162.4030 S.3     1  UNL1       -0.0497
     12 H         146.9601  141.1256  163.5830 H       1  UNL1        0.2105
     13 C         142.8674  138.4670  165.0933 C.3     1  UNL1        0.1696
     14 O         141.6569  137.6628  164.7221 O.3     1  UNL1       -0.3794
     15 H         140.8565  138.1767  164.9123 H       1  UNL1        0.2105
     16 N         141.9802  145.1358  161.0482 N.pl3   1  UNL1       -0.3135
     17 H         142.6445  145.7740  160.7009 H       1  UNL1        0.1487
     18 C         139.7512  146.2453  161.7902 C.3     1  UNL1        0.0230
     19 C         140.5169  145.3836  160.8305 C.3     1  UNL1        0.0887
@<TRIPOS>BOND
     1    18    19    1
     2    19    16    1
     3    16     1    1
     4     1     2    2
     5     3     2    1
     6     3     4    1
     7     4     5    1
     8     5     6    1
     9     6    13    1
    10    13    14    1
    11     6     7    1
    12     7     8    1
    13     7     9    1
    14     9    10    1
    15     4    11    1
    16    11     1    1
    17     9     3    1
    18    16    17    1
    19    14    15    1
    20    10    12    1
@<TRIPOS>MOLECULE
*****
 19 20 0 0 0
SMALL
GASTEIGER

@<TRIPOS>ATOM
      1 C         138.9371  139.4489  164.5249 C.2     1  UNL1        0.1535
      2 N         140.3731  139.8548  164.6768 N.2     1  UNL1       -0.2470
      3 C         140.6681  139.9758  166.1426 C.3     1  UNL1        0.1723
      4 C         139.4143  139.6447  166.8965 C.3     1  UNL1        0.1938
      5 O         139.4088  139.6825  168.3960 O.3     1  UNL1       -0.3399
      6 C         140.6570  140.0514  169.1416 C.3     1  UNL1        0.1803
      7 C         141.9108  140.3825  168.3877 C.3     1  UNL1        0.2189
      8 F         143.1590  140.7514  169.1332 F       1  UNL1       -0.2319
      9 C         141.9163  140.3447  166.8881 C.3     1  UNL1        0.1711
     10 O         143.1700  140.6758  166.1341 O.3     1  UNL1       -0.3796
     11 S         138.3445  139.3191  165.8967 S.3     1  UNL1       -0.0497
     12 H         143.8777  140.8904  166.7619 H       1  UNL1        0.2105
     13 C         140.6515  140.0892  170.6411 C.3     1  UNL1        0.1696
     14 O         139.6523  139.2748  171.4081 O.3     1  UNL1       -0.3794
     15 H         138.7592  139.6109  171.2339 H       1  UNL1        0.2105
     16 N         138.2197  139.2141  163.2287 N.pl3   1  UNL1       -0.3135
     17 H         138.0622  138.2951  162.9127 H       1  UNL1        0.1487
     18 C         137.5750  141.7250  163.0556 C.3     1  UNL1        0.0230
     19 C         137.7422  140.3795  162.4139 C.3     1  UNL1        0.0887
@<TRIPOS>BOND
     1    18    19    1
     2    19    16    1
     3    16     1    1
     4     1     2    2
     5     3     2    1
     6     3     4    1
     7     4     5    1
     8     5     6    1
     9     6    13    1
    10    13    14    1
    11     6     7    1
    12     7     8    1
    13     7     9    1
    14     9    10    1
    15     4    11    1
    16    11     1    1
    17     9     3    1
    18    16    17    1
    19    14    15    1
    20    10    12    1
@<TRIPOS>MOLECULE
*****
 19 20 0 0 0
SMALL
GASTEIGER

@<TRIPOS>ATOM
      1 C         143.2302  139.4583  165.8596 C.2     1  UNL1        0.1535
      2 N         143.3100  138.8630  167.2341 N.2     1  UNL1       -0.2470
      3 C         142.5471  139.7531  168.1699 C.3     1  UNL1        0.1723
      4 C         141.9957  140.8986  167.3737 C.3     1  UNL1        0.1938
      5 O         141.1805  141.9595  168.0517 O.3     1  UNL1       -0.3399
      6 C         140.9166  141.8750  169.5260 C.3     1  UNL1        0.1803
      7 C         141.4680  140.7295  170.3221 C.3     1  UNL1        0.2189
      8 F         141.2042  140.6450  171.7963 F       1  UNL1       -0.2319
      9 C         142.2833  139.6686  169.6440 C.3     1  UNL1        0.1711
     10 O         142.8347  138.5231  170.4402 O.3     1  UNL1       -0.3796
     11 S         142.4179  140.7164  165.9459 S.3     1  UNL1       -0.0497
     12 H         142.5737  138.6199  171.3694 H       1  UNL1        0.2105
     13 C         140.1014  142.9360  170.2040 C.3     1  UNL1        0.1696
     14 O         140.5836  144.3562  170.2205 O.3     1  UNL1       -0.3794
     15 H         141.3967  144.4155  170.7461 H       1  UNL1        0.2105
     16 N         143.8532  138.8946  164.6170 N.pl3   1  UNL1       -0.3135
     17 H         143.9290  137.9196  164.5031 H       1  UNL1        0.1487
     18 C         145.4772  140.7715  163.8493 C.3     1  UNL1        0.0230
     19 C         144.3607  139.8162  163.5480 C.3     1  UNL1        0.0887
@<TRIPOS>BOND
     1    18    19    1
     2    19    16    1
     3    16     1    1
     4     1     2    2
     5     3     2    1
     6     3     4    1
     7     4     5    1
     8     5     6    1
     9     6    13    1
    10    13    14    1
    11     6     7    1
    12     7     8    1
    13     7     9    1
    14     9    10    1
    15     4    11    1
    16    11     1    1
    17     9     3    1
    18    16    17    1
    19    14    15    1
    20    10    12    1
@<TRIPOS>MOLECULE
*****
 19 20 0 0 0
SMALL
GASTEIGER

@<TRIPOS>ATOM
      1 C         142.8303  142.1633  165.0364 C.2     1  UNL1        0.1535
      2 N         143.5642  142.5025  166.2998 N.2     1  UNL1       -0.2470
      3 C         142.7014  142.1007  167.4592 C.3     1  UNL1        0.1723
      4 C         141.4342  141.5132  166.9123 C.3     1  UNL1        0.1938
      5 O         140.3715  141.0188  167.8483 O.3     1  UNL1       -0.3399
      6 C         140.5760  141.1120  169.3315 C.3     1  UNL1        0.1803
      7 C         141.8431  141.6995  169.8784 C.3     1  UNL1        0.2189
      8 F         142.0476  141.7927  171.3615 F       1  UNL1       -0.2319
      9 C         142.9059  142.1938  168.9422 C.3     1  UNL1        0.1711
     10 O         144.1730  142.7813  169.4892 O.3     1  UNL1       -0.3796
     11 S         141.5139  141.5519  165.4149 S.3     1  UNL1       -0.0497
     12 H         144.1441  142.7668  170.4587 H       1  UNL1        0.2105
     13 C         139.5133  140.6177  170.2676 C.3     1  UNL1        0.1696
     14 O         139.8075  139.4838  171.2045 O.3     1  UNL1       -0.3794
     15 H         139.9631  138.6742  170.6934 H       1  UNL1        0.2105
     16 N         143.3258  142.3949  163.6396 N.pl3   1  UNL1       -0.3135
     17 H         142.6945  142.3785  162.8843 H       1  UNL1        0.1487
     18 C         145.7939  141.5856  163.6970 C.3     1  UNL1        0.0230
     19 C         144.7830  142.6515  163.3937 C.3     1  UNL1        0.0887
@<TRIPOS>BOND
     1    18    19    1
     2    19    16    1
     3    16     1    1
     4     1     2    2
     5     3     2    1
     6     3     4    1
     7     4     5    1
     8     5     6    1
     9     6    13    1
    10    13    14    1
    11     6     7    1
    12     7     8    1
    13     7     9    1
    14     9    10    1
    15     4    11    1
    16    11     1    1
    17     9     3    1
    18    16    17    1
    19    14    15    1
    20    10    12    1
@<TRIPOS>MOLECULE
*****
 19 20 0 0 0
SMALL
GASTEIGER

@<TRIPOS>ATOM
      1 C         142.1128  140.0635  165.2292 C.2     1  UNL1        0.1535
      2 N         140.7867  139.5330  165.6873 N.2     1  UNL1       -0.2470
      3 C         140.5415  140.0365  167.0789 C.3     1  UNL1        0.1723
      4 C         141.7162  140.8783  167.4808 C.3     1  UNL1        0.1938
      5 O         141.7498  141.5209  168.8358 O.3     1  UNL1       -0.3399
      6 C         140.6087  141.3216  169.7889 C.3     1  UNL1        0.1803
      7 C         139.4341  140.4798  169.3869 C.3     1  UNL1        0.2189
      8 F         138.2930  140.2806  170.3399 F       1  UNL1       -0.2319
      9 C         139.4005  139.8373  168.0319 C.3     1  UNL1        0.1711
     10 O         138.2258  138.9955  167.6299 O.3     1  UNL1       -0.3796
     11 S         142.6873  140.8950  166.3377 S.3     1  UNL1       -0.0497
     12 H         137.5828  138.9701  168.3557 H       1  UNL1        0.2105
     13 C         140.6424  141.9642  171.1438 C.3     1  UNL1        0.1696
     14 O         141.9524  142.1656  171.8460 O.3     1  UNL1       -0.3794
     15 H         142.3374  141.3028  172.0659 H       1  UNL1        0.2105
     16 N         142.7522  139.8076  163.8967 N.pl3   1  UNL1       -0.3135
     17 H         142.2179  139.8778  163.0727 H       1  UNL1        0.1487
     18 C         145.2398  140.5201  163.6647 C.3     1  UNL1        0.0230
     19 C         144.2055  139.4448  163.8195 C.3     1  UNL1        0.0887
@<TRIPOS>BOND
     1    18    19    1
     2    19    16    1
     3    16     1    1
     4     1     2    2
     5     3     2    1
     6     3     4    1
     7     4     5    1
     8     5     6    1
     9     6    13    1
    10    13    14    1
    11     6     7    1
    12     7     8    1
    13     7     9    1
    14     9    10    1
    15     4    11    1
    16    11     1    1
    17     9     3    1
    18    16    17    1
    19    14    15    1
    20    10    12    1
