@<TRIPOS>MOLECULE
*****
 21 23 0 0 0
SMALL
GASTEIGER

@<TRIPOS>ATOM
      1 C         142.4612  140.1333  167.5473 C.3     1  UNL1        0.0629
      2 C         143.0994  138.8536  167.0946 C.3     1  UNL1        0.0247
      3 C         143.2586  138.5722  165.6299 C.3     1  UNL1        0.0690
      4 N         142.7796  139.5704  164.6179 N.3     1  UNL1       -0.2982
      5 C         142.1414  140.8501  165.0707 C.3     1  UNL1        0.0588
      6 C         141.9822  141.1316  166.5354 C.3     1  UNL1        0.0237
      7 H         142.0954  139.0912  164.0326 H       1  UNL1        0.1232
      8 O         140.6581  142.0475  172.1262 O.2     1  UNL1       -0.2645
      9 C         141.4732  141.2947  171.1168 C.ar    1  UNL1        0.2884
     10 C         141.2639  141.3030  169.6315 C.ar    1  UNL1        0.0986
     11 C         142.3020  140.4149  169.0121 C.ar    1  UNL1        0.1547
     12 O         143.1529  139.8578  170.1146 O.2     1  UNL1       -0.3802
     13 N         142.6407  140.4015  171.4154 N.ar    1  UNL1       -0.1839
     14 H         143.0066  140.2064  172.3083 H       1  UNL1        0.2107
     15 C         141.6624  141.8484  164.0587 C.3     1  UNL1        0.0420
     16 C         140.3815  142.5941  164.2889 C.ar    1  UNL1       -0.0208
     17 C         140.4145  144.0555  164.6254 C.ar    1  UNL1       -0.0042
     18 C         139.1335  144.8013  164.8556 C.ar    1  UNL1       -0.0003
     19 C         137.8196  144.0856  164.7494 C.ar    1  UNL1       -0.0000
     20 C         137.7865  142.6242  164.4129 C.ar    1  UNL1       -0.0003
     21 C         139.0675  141.8784  164.1827 C.ar    1  UNL1       -0.0042
@<TRIPOS>BOND
     1     8     9    2
     2     9    10   ar
     3    10    11   ar
     4     1    11    1
     5     1     2    1
     6     2     3    1
     7     3     4    1
     8     4     5    1
     9     5    15    1
    10    15    16    1
    11    16    17   ar
    12    17    18   ar
    13    18    19   ar
    14    19    20   ar
    15    20    21   ar
    16     5     6    1
    17    11    12   ar
    18    12    13   ar
    19    13     9   ar
    20     6     1    1
    21    21    16   ar
    22     4     7    1
    23    13    14    1
@<TRIPOS>MOLECULE
*****
 21 23 0 0 0
SMALL
GASTEIGER

@<TRIPOS>ATOM
      1 C         143.0235  141.7237  167.4788 C.3     1  UNL1        0.0629
      2 C         143.6116  142.7603  166.5680 C.3     1  UNL1        0.0247
      3 C         143.9408  142.4103  165.1471 C.3     1  UNL1        0.0690
      4 N         143.6819  141.0236  164.6369 N.3     1  UNL1       -0.2982
      5 C         143.0938  139.9871  165.5477 C.3     1  UNL1        0.0588
      6 C         142.7645  140.3371  166.9686 C.3     1  UNL1        0.0237
      7 H         144.5769  140.6572  164.3129 H       1  UNL1        0.1232
      8 O         140.5146  142.0778  172.1114 O.2     1  UNL1       -0.2645
      9 C         141.5410  142.2365  171.0292 C.ar    1  UNL1        0.2884
     10 C         141.4546  141.6714  169.6424 C.ar    1  UNL1        0.0986
     11 C         142.6942  142.0737  168.8998 C.ar    1  UNL1        0.1547
     12 O         143.5468  142.8875  169.8276 O.2     1  UNL1       -0.3802
     13 N         142.8341  142.9881  171.1436 N.ar    1  UNL1       -0.1839
     14 H         143.1581  143.4639  171.9423 H       1  UNL1        0.2107
     15 C         142.8348  138.6004  165.0376 C.3     1  UNL1        0.0420
     16 C         141.5132  138.2660  164.4121 C.ar    1  UNL1       -0.0208
     17 C         141.4168  138.0544  162.9302 C.ar    1  UNL1       -0.0042
     18 C         140.0951  137.7199  162.3047 C.ar    1  UNL1       -0.0003
     19 C         138.8697  137.5972  163.1610 C.ar    1  UNL1       -0.0000
     20 C         138.9660  137.8089  164.6429 C.ar    1  UNL1       -0.0003
     21 C         140.2878  138.1433  165.2684 C.ar    1  UNL1       -0.0042
@<TRIPOS>BOND
     1     8     9    2
     2     9    10   ar
     3    10    11   ar
     4     1    11    1
     5     1     2    1
     6     2     3    1
     7     3     4    1
     8     4     5    1
     9     5    15    1
    10    15    16    1
    11    16    17   ar
    12    17    18   ar
    13    18    19   ar
    14    19    20   ar
    15    20    21   ar
    16     5     6    1
    17    11    12   ar
    18    12    13   ar
    19    13     9   ar
    20     6     1    1
    21    21    16   ar
    22     4     7    1
    23    13    14    1
@<TRIPOS>MOLECULE
*****
 21 23 0 0 0
SMALL
GASTEIGER

@<TRIPOS>ATOM
      1 C         139.4253  139.8976  166.8166 C.3     1  UNL1        0.0629
      2 C         138.5809  138.8837  166.1033 C.3     1  UNL1        0.0247
      3 C         138.6245  138.7908  164.6068 C.3     1  UNL1        0.0690
      4 N         139.5125  139.7118  163.8237 N.3     1  UNL1       -0.2982
      5 C         140.3569  140.7257  164.5371 C.3     1  UNL1        0.0588
      6 C         140.3133  140.8187  166.0335 C.3     1  UNL1        0.0237
      7 H         138.9094  140.2287  163.1838 H       1  UNL1        0.1232
      8 O         140.7180  140.9789  171.8207 O.2     1  UNL1       -0.2645
      9 C         139.9760  140.4876  170.6133 C.ar    1  UNL1        0.2884
     10 C         140.4260  140.6179  169.1884 C.ar    1  UNL1        0.0986
     11 C         139.3817  139.9906  168.3132 C.ar    1  UNL1        0.1547
     12 O         138.2862  139.4726  169.1972 O.2     1  UNL1       -0.3802
     13 N         138.6534  139.7798  170.6187 N.ar    1  UNL1       -0.1839
     14 H         138.1201  139.5560  171.4155 H       1  UNL1        0.2107
     15 C         141.2449  141.6467  163.7540 C.3     1  UNL1        0.0420
     16 C         142.7353  141.4954  163.8295 C.ar    1  UNL1       -0.0208
     17 C         143.6077  142.7104  163.9423 C.ar    1  UNL1       -0.0042
     18 C         145.0981  142.5591  164.0178 C.ar    1  UNL1       -0.0003
     19 C         145.7162  141.1929  163.9804 C.ar    1  UNL1       -0.0000
     20 C         144.8438  139.9779  163.8676 C.ar    1  UNL1       -0.0003
     21 C         143.3533  140.1292  163.7921 C.ar    1  UNL1       -0.0042
@<TRIPOS>BOND
     1     8     9    2
     2     9    10   ar
     3    10    11   ar
     4     1    11    1
     5     1     2    1
     6     2     3    1
     7     3     4    1
     8     4     5    1
     9     5    15    1
    10    15    16    1
    11    16    17   ar
    12    17    18   ar
    13    18    19   ar
    14    19    20   ar
    15    20    21   ar
    16     5     6    1
    17    11    12   ar
    18    12    13   ar
    19    13     9   ar
    20     6     1    1
    21    21    16   ar
    22     4     7    1
    23    13    14    1
@<TRIPOS>MOLECULE
*****
 21 23 0 0 0
SMALL
GASTEIGER

@<TRIPOS>ATOM
      1 C         139.5799  139.9210  166.7560 C.3     1  UNL1        0.0629
      2 C         138.4273  139.4524  165.9183 C.3     1  UNL1        0.0247
      3 C         138.5649  139.3803  164.4264 C.3     1  UNL1        0.0690
      4 N         139.8552  139.7769  163.7722 N.3     1  UNL1       -0.2982
      5 C         141.0078  140.2455  164.6099 C.3     1  UNL1        0.0588
      6 C         140.8701  140.3176  166.1018 C.3     1  UNL1        0.0237
      7 H         139.6362  140.5329  163.1234 H       1  UNL1        0.1232
      8 O         140.5751  140.8925  171.8498 O.2     1  UNL1       -0.2645
      9 C         139.8997  140.4396  170.5894 C.ar    1  UNL1        0.2884
     10 C         140.4441  140.5785  169.1986 C.ar    1  UNL1        0.0986
     11 C         139.4423  139.9931  168.2480 C.ar    1  UNL1        0.1547
     12 O         138.2787  139.4924  169.0513 O.2     1  UNL1       -0.3802
     13 N         138.5614  139.7683  170.4983 N.ar    1  UNL1       -0.1839
     14 H         137.9720  139.5477  171.2554 H       1  UNL1        0.2107
     15 C         142.2981  140.6421  163.9558 C.3     1  UNL1        0.0420
     16 C         142.8004  142.0499  164.0803 C.ar    1  UNL1       -0.0208
     17 C         143.9864  142.3490  164.9487 C.ar    1  UNL1       -0.0042
     18 C         144.4888  143.7569  165.0733 C.ar    1  UNL1       -0.0003
     19 C         143.8052  144.8657  164.3295 C.ar    1  UNL1       -0.0000
     20 C         142.6192  144.5667  163.4611 C.ar    1  UNL1       -0.0003
     21 C         142.1168  143.1588  163.3365 C.ar    1  UNL1       -0.0042
@<TRIPOS>BOND
     1     8     9    2
     2     9    10   ar
     3    10    11   ar
     4     1    11    1
     5     1     2    1
     6     2     3    1
     7     3     4    1
     8     4     5    1
     9     5    15    1
    10    15    16    1
    11    16    17   ar
    12    17    18   ar
    13    18    19   ar
    14    19    20   ar
    15    20    21   ar
    16     5     6    1
    17    11    12   ar
    18    12    13   ar
    19    13     9   ar
    20     6     1    1
    21    21    16   ar
    22     4     7    1
    23    13    14    1
@<TRIPOS>MOLECULE
*****
 21 23 0 0 0
SMALL
GASTEIGER

@<TRIPOS>ATOM
      1 C         140.8275  143.6769  162.4827 C.3     1  UNL1        0.0629
      2 C         140.2233  145.0497  162.4606 C.3     1  UNL1        0.0247
      3 C         138.7339  145.2146  162.5251 C.3     1  UNL1        0.0690
      4 N         137.8486  144.0068  162.6117 N.3     1  UNL1       -0.2982
      5 C         138.4528  142.6341  162.6338 C.3     1  UNL1        0.0588
      6 C         139.9422  142.4691  162.5693 C.3     1  UNL1        0.0237
      7 H         137.2244  144.0408  161.8057 H       1  UNL1        0.1232
      8 O         145.6647  141.5791  162.7686 O.2     1  UNL1       -0.2645
      9 C         144.5405  142.5477  162.5496 C.ar    1  UNL1        0.2884
     10 C         143.0814  142.2656  162.7536 C.ar    1  UNL1        0.0986
     11 C         142.3171  143.5119  162.4181 C.ar    1  UNL1        0.1547
     12 O         143.3037  144.5642  162.0068 O.2     1  UNL1       -0.3802
     13 N         144.6779  143.9683  162.0881 N.ar    1  UNL1       -0.1839
     14 H         145.5217  144.4288  161.8758 H       1  UNL1        0.2107
     15 C         137.5675  141.4263  162.7204 C.3     1  UNL1        0.0420
     16 C         138.0319  140.2076  163.4614 C.ar    1  UNL1       -0.0208
     17 C         138.1062  140.2236  164.9595 C.ar    1  UNL1       -0.0042
     18 C         138.5706  139.0049  165.7005 C.ar    1  UNL1       -0.0003
     19 C         138.9607  137.7701  164.9434 C.ar    1  UNL1       -0.0000
     20 C         138.8864  137.7541  163.4453 C.ar    1  UNL1       -0.0003
     21 C         138.4219  138.9728  162.7043 C.ar    1  UNL1       -0.0042
@<TRIPOS>BOND
     1     8     9    2
     2     9    10   ar
     3    10    11   ar
     4     1    11    1
     5     1     2    1
     6     2     3    1
     7     3     4    1
     8     4     5    1
     9     5    15    1
    10    15    16    1
    11    16    17   ar
    12    17    18   ar
    13    18    19   ar
    14    19    20   ar
    15    20    21   ar
    16     5     6    1
    17    11    12   ar
    18    12    13   ar
    19    13     9   ar
    20     6     1    1
    21    21    16   ar
    22     4     7    1
    23    13    14    1
@<TRIPOS>MOLECULE
*****
 21 23 0 0 0
SMALL
GASTEIGER

@<TRIPOS>ATOM
      1 C         140.0904  140.2110  167.3252 C.3     1  UNL1        0.0629
      2 C         138.8663  139.4756  166.8664 C.3     1  UNL1        0.0247
      3 C         138.9583  138.5032  165.7280 C.3     1  UNL1        0.0690
      4 N         140.2744  138.2662  165.0485 N.3     1  UNL1       -0.2982
      5 C         141.4985  139.0016  165.5074 C.3     1  UNL1        0.0588
      6 C         141.4065  139.9740  166.6457 C.3     1  UNL1        0.0237
      7 H         140.1433  138.4980  164.0639 H       1  UNL1        0.1232
      8 O         140.6542  144.5496  170.2816 O.2     1  UNL1       -0.2645
      9 C         140.2576  143.1778  169.8225 C.ar    1  UNL1        0.2884
     10 C         140.5926  142.5604  168.4971 C.ar    1  UNL1        0.0986
     11 C         139.9985  141.1835  168.4636 C.ar    1  UNL1        0.1547
     12 O         139.2963  140.9498  169.7683 O.2     1  UNL1       -0.3802
     13 N         139.4564  142.1823  170.6082 N.ar    1  UNL1       -0.1839
     14 H         139.0985  142.3147  171.5157 H       1  UNL1        0.2107
     15 C         142.8146  138.7646  164.8279 C.3     1  UNL1        0.0420
     16 C         143.5276  139.9010  164.1569 C.ar    1  UNL1       -0.0208
     17 C         144.9937  140.1112  164.3941 C.ar    1  UNL1       -0.0042
     18 C         145.7067  141.2475  163.7230 C.ar    1  UNL1       -0.0003
     19 C         144.9536  142.1737  162.8148 C.ar    1  UNL1       -0.0000
     20 C         143.4875  141.9636  162.5776 C.ar    1  UNL1       -0.0003
     21 C         142.7744  140.8272  163.2486 C.ar    1  UNL1       -0.0042
@<TRIPOS>BOND
     1     8     9    2
     2     9    10   ar
     3    10    11   ar
     4     1    11    1
     5     1     2    1
     6     2     3    1
     7     3     4    1
     8     4     5    1
     9     5    15    1
    10    15    16    1
    11    16    17   ar
    12    17    18   ar
    13    18    19   ar
    14    19    20   ar
    15    20    21   ar
    16     5     6    1
    17    11    12   ar
    18    12    13   ar
    19    13     9   ar
    20     6     1    1
    21    21    16   ar
    22     4     7    1
    23    13    14    1
@<TRIPOS>MOLECULE
*****
 21 23 0 0 0
SMALL
GASTEIGER

@<TRIPOS>ATOM
      1 C         139.9640  140.1241  167.4366 C.3     1  UNL1        0.0629
      2 C         138.6919  139.3868  167.1397 C.3     1  UNL1        0.0247
      3 C         138.2630  139.1734  165.7183 C.3     1  UNL1        0.0690
      4 N         139.1062  139.6974  164.5938 N.3     1  UNL1       -0.2982
      5 C         140.3782  140.4348  164.8907 C.3     1  UNL1        0.0588
      6 C         140.8071  140.6481  166.3121 C.3     1  UNL1        0.0237
      7 H         138.5169  140.3321  164.0549 H       1  UNL1        0.1232
      8 O         140.5055  142.2017  172.2607 O.2     1  UNL1       -0.2645
      9 C         140.6418  141.2925  171.0755 C.ar    1  UNL1        0.2884
     10 C         139.9798  141.4768  169.7421 C.ar    1  UNL1        0.0986
     11 C         140.3929  140.3375  168.8581 C.ar    1  UNL1        0.1547
     12 O         141.3102  139.4492  169.6451 O.2     1  UNL1       -0.3802
     13 N         141.4641  140.0393  171.0155 N.ar    1  UNL1       -0.1839
     14 H         142.0090  139.6692  171.7471 H       1  UNL1        0.2107
     15 C         141.2214  140.9588  163.7662 C.3     1  UNL1        0.0420
     16 C         141.6791  142.3872  163.7745 C.ar    1  UNL1       -0.0208
     17 C         140.6715  143.4974  163.8239 C.ar    1  UNL1       -0.0042
     18 C         141.1292  144.9258  163.8322 C.ar    1  UNL1       -0.0003
     19 C         142.5944  145.2441  163.7912 C.ar    1  UNL1       -0.0000
     20 C         143.6020  144.1340  163.7419 C.ar    1  UNL1       -0.0003
     21 C         143.1443  142.7055  163.7335 C.ar    1  UNL1       -0.0042
@<TRIPOS>BOND
     1     8     9    2
     2     9    10   ar
     3    10    11   ar
     4     1    11    1
     5     1     2    1
     6     2     3    1
     7     3     4    1
     8     4     5    1
     9     5    15    1
    10    15    16    1
    11    16    17   ar
    12    17    18   ar
    13    18    19   ar
    14    19    20   ar
    15    20    21   ar
    16     5     6    1
    17    11    12   ar
    18    12    13   ar
    19    13     9   ar
    20     6     1    1
    21    21    16   ar
    22     4     7    1
    23    13    14    1
@<TRIPOS>MOLECULE
*****
 21 23 0 0 0
SMALL
GASTEIGER

@<TRIPOS>ATOM
      1 C         143.3230  142.2324  163.1371 C.3     1  UNL1        0.0629
      2 C         144.8200  142.3264  163.1469 C.3     1  UNL1        0.0247
      3 C         145.6341  141.2578  163.8142 C.3     1  UNL1        0.0690
      4 N         144.9513  140.0952  164.4715 N.3     1  UNL1       -0.2982
      5 C         143.4543  140.0012  164.4616 C.3     1  UNL1        0.0588
      6 C         142.6401  141.0698  163.7944 C.3     1  UNL1        0.0237
      7 H         145.2396  140.0992  165.4499 H       1  UNL1        0.1232
      8 O         139.2528  145.2408  161.6323 O.2     1  UNL1       -0.2645
      9 C         140.6379  144.6838  161.7782 C.ar    1  UNL1        0.2884
     10 C         141.0304  143.5059  162.6198 C.ar    1  UNL1        0.0986
     11 C         142.5088  143.3011  162.4698 C.ar    1  UNL1        0.1547
     12 O         143.0299  144.3524  161.5354 O.2     1  UNL1       -0.3802
     13 N         141.8737  145.2070  161.1080 N.ar    1  UNL1       -0.1839
     14 H         141.9181  145.9762  160.4951 H       1  UNL1        0.2107
     15 C         142.7714  138.8387  165.1190 C.3     1  UNL1        0.0420
     16 C         141.3196  138.9304  165.4845 C.ar    1  UNL1       -0.0208
     17 C         140.8927  139.7610  166.6584 C.ar    1  UNL1       -0.0042
     18 C         139.4408  139.8527  167.0238 C.ar    1  UNL1       -0.0003
     19 C         138.4158  139.1139  166.2155 C.ar    1  UNL1       -0.0000
     20 C         138.8426  138.2834  165.0416 C.ar    1  UNL1       -0.0003
     21 C         140.2945  138.1916  164.6761 C.ar    1  UNL1       -0.0042
@<TRIPOS>BOND
     1     8     9    2
     2     9    10   ar
     3    10    11   ar
     4     1    11    1
     5     1     2    1
     6     2     3    1
     7     3     4    1
     8     4     5    1
     9     5    15    1
    10    15    16    1
    11    16    17   ar
    12    17    18   ar
    13    18    19   ar
    14    19    20   ar
    15    20    21   ar
    16     5     6    1
    17    11    12   ar
    18    12    13   ar
    19    13     9   ar
    20     6     1    1
    21    21    16   ar
    22     4     7    1
    23    13    14    1
@<TRIPOS>MOLECULE
*****
 21 23 0 0 0
SMALL
GASTEIGER

@<TRIPOS>ATOM
      1 C         141.9025  139.8740  167.5692 C.3     1  UNL1        0.0629
      2 C         142.9265  138.7781  167.5878 C.3     1  UNL1        0.0247
      3 C         143.6800  138.4344  166.3371 C.3     1  UNL1        0.0690
      4 N         143.4094  139.1866  165.0679 N.3     1  UNL1       -0.2982
      5 C         142.3853  140.2824  165.0493 C.3     1  UNL1        0.0588
      6 C         141.6319  140.6262  166.2999 C.3     1  UNL1        0.0237
      7 H         143.1166  138.4982  164.3744 H       1  UNL1        0.1232
      8 O         140.5171  142.1314  172.1371 O.2     1  UNL1       -0.2645
      9 C         140.5123  141.2554  170.9195 C.ar    1  UNL1        0.2884
     10 C         141.5518  141.2428  169.8383 C.ar    1  UNL1        0.0986
     11 C         141.1490  140.2178  168.8199 C.ar    1  UNL1        0.1547
     12 O         139.8605  139.5969  169.2717 O.2     1  UNL1       -0.3802
     13 N         139.4669  140.2382  170.5693 N.ar    1  UNL1       -0.1839
     14 H         138.6636  140.0283  171.0983 H       1  UNL1        0.2107
     15 C         142.1148  141.0346  163.7800 C.3     1  UNL1        0.0420
     16 C         142.1370  142.5344  163.7777 C.ar    1  UNL1       -0.0208
     17 C         143.4441  143.2653  163.8643 C.ar    1  UNL1       -0.0042
     18 C         143.4664  144.7651  163.8620 C.ar    1  UNL1       -0.0003
     19 C         142.1816  145.5341  163.7731 C.ar    1  UNL1       -0.0000
     20 C         140.8745  144.8033  163.6864 C.ar    1  UNL1       -0.0003
     21 C         140.8522  143.3034  163.6887 C.ar    1  UNL1       -0.0042
@<TRIPOS>BOND
     1     8     9    2
     2     9    10   ar
     3    10    11   ar
     4     1    11    1
     5     1     2    1
     6     2     3    1
     7     3     4    1
     8     4     5    1
     9     5    15    1
    10    15    16    1
    11    16    17   ar
    12    17    18   ar
    13    18    19   ar
    14    19    20   ar
    15    20    21   ar
    16     5     6    1
    17    11    12   ar
    18    12    13   ar
    19    13     9   ar
    20     6     1    1
    21    21    16   ar
    22     4     7    1
    23    13    14    1
