@<TRIPOS>MOLECULE
*****
 36 40 0 0 0
SMALL
GASTEIGER

@<TRIPOS>ATOM
      1 C         137.7548  141.0889  161.5743 C.3     1  UNL1        0.2588
      2 O         138.0985  141.8763  159.1224 O.2     1  UNL1       -0.2708
      3 C         138.4949  141.9198  160.5683 C.2     1  UNL1        0.2689
      4 N         139.6315  142.7942  161.0084 N.am    1  UNL1       -0.2664
      5 H         139.8917  142.8228  161.9575 H       1  UNL1        0.1564
      6 C         140.3716  143.6251  160.0026 C.ar    1  UNL1        0.1344
      7 C         141.7153  143.1807  159.5058 C.ar    1  UNL1        0.0368
      8 C         142.4555  144.0116  158.4999 C.ar    1  UNL1        0.0341
      9 C         141.8518  145.2869  157.9908 C.ar    1  UNL1        0.1593
     10 F         142.5919  146.1178  156.9849 F       1  UNL1       -0.2025
     11 C         140.5081  145.7314  158.4876 C.ar    1  UNL1        0.1298
     12 N         139.7680  144.9004  159.4935 N.ar    1  UNL1       -0.2267
     13 C         137.6786  139.6003  161.4070 C.3     1  UNL1        0.1261
     14 N         138.7777  138.7286  161.9379 N.3     1  UNL1       -0.2650
     15 C         138.8633  137.6336  162.9596 C.3     1  UNL1        0.1033
     16 C         140.3322  137.4958  162.6888 C.3     1  UNL1        0.1423
     17 O         141.4314  136.6241  163.2198 O.3     1  UNL1       -0.3816
     18 C         140.2466  138.5907  161.6672 C.3     1  UNL1        0.1033
     19 H         141.0719  136.0236  163.8914 H       1  UNL1        0.2105
     20 O         137.0910  141.7468  162.7476 O.3     1  UNL1       -0.4529
     21 C         137.9136  142.5055  163.7464 C.ar    1  UNL1        0.2312
     22 N         138.0417  143.9959  163.6352 N.ar    1  UNL1       -0.1892
     23 C         138.8643  144.7545  164.6340 C.ar    1  UNL1        0.2029
     24 N         139.5588  144.0229  165.7441 N.ar    1  UNL1       -0.2045
     25 C         139.4307  142.5325  165.8554 C.ar    1  UNL1        0.1732
     26 C         138.6081  141.7738  164.8565 C.ar    1  UNL1        0.1099
     27 C         138.6649  140.3192  165.2185 C.ar    1  UNL1        0.1283
     28 N         139.5227  140.1789  166.4410 N.ar    1  UNL1       -0.1606
     29 N         139.9959  141.5468  166.8346 N.ar    1  UNL1       -0.1936
     30 C         140.8793  141.8720  168.0025 C.ar    1  UNL1        0.1759
     31 N         140.3044  141.9214  169.3870 N.ar    1  UNL1       -0.2242
     32 C         141.1878  142.2465  170.5548 C.ar    1  UNL1        0.1006
     33 C         142.6462  142.5223  170.3382 C.ar    1  UNL1        0.0217
     34 C         143.2212  142.4729  168.9537 C.ar    1  UNL1        0.0161
     35 C         142.3378  142.1478  167.7858 C.ar    1  UNL1        0.0935
     36 CL        142.9128  142.0984  166.4013 Cl      1  UNL1       -0.0790
@<TRIPOS>BOND
     1     2     3    2
     2     3     4   am
     3     4     6    1
     4     6     7   ar
     5     7     8   ar
     6     8     9   ar
     7     9    10    1
     8     9    11   ar
     9    11    12   ar
    10     3     1    1
    11     1    13    1
    12    13    14    1
    13    14    15    1
    14    15    16    1
    15    16    17    1
    16    16    18    1
    17     1    20    1
    18    20    21    1
    19    21    22   ar
    20    22    23   ar
    21    23    24   ar
    22    24    25   ar
    23    25    26   ar
    24    26    27   ar
    25    27    28   ar
    26    28    29   ar
    27    29    30    1
    28    30    31   ar
    29    31    32   ar
    30    32    33   ar
    31    33    34   ar
    32    34    35   ar
    33    35    36    1
    34    12     6   ar
    35    18    14    1
    36    26    21   ar
    37    35    30   ar
    38    29    25   ar
    39     4     5    1
    40    17    19    1
@<TRIPOS>MOLECULE
*****
 36 40 0 0 0
SMALL
GASTEIGER

@<TRIPOS>ATOM
      1 C         142.3616  139.5583  167.2282 C.3     1  UNL1        0.2588
      2 O         139.8270  139.9229  166.7885 O.2     1  UNL1       -0.2708
      3 C         141.2539  140.3368  166.5823 C.2     1  UNL1        0.2689
      4 N         141.5732  141.5293  165.7302 N.am    1  UNL1       -0.2664
      5 H         142.5098  141.8010  165.5949 H       1  UNL1        0.1564
      6 C         140.4657  142.3078  165.0844 C.ar    1  UNL1        0.1344
      7 C         139.9064  143.5219  165.7649 C.ar    1  UNL1        0.0368
      8 C         138.7989  144.3004  165.1191 C.ar    1  UNL1        0.0341
      9 C         138.2504  143.8648  163.7926 C.ar    1  UNL1        0.1593
     10 F         137.1429  144.6433  163.1467 F       1  UNL1       -0.2025
     11 C         138.8097  142.6507  163.1120 C.ar    1  UNL1        0.1298
     12 N         139.9173  141.8722  163.7579 N.ar    1  UNL1       -0.2267
     13 C         142.5489  139.6136  168.7154 C.3     1  UNL1        0.1261
     14 N         142.7000  140.9378  169.4036 N.3     1  UNL1       -0.2650
     15 C         142.1475  141.5514  170.6560 C.3     1  UNL1        0.1033
     16 C         142.9137  142.8105  170.3769 C.3     1  UNL1        0.1423
     17 O         143.0647  144.1347  171.0651 O.3     1  UNL1       -0.3816
     18 C         143.4660  142.1969  169.1247 C.3     1  UNL1        0.1033
     19 H         142.5289  144.1419  171.8736 H       1  UNL1        0.2105
     20 O         143.2819  138.7246  166.3868 O.3     1  UNL1       -0.4529
     21 C         143.5335  139.0973  164.9557 C.ar    1  UNL1        0.2312
     22 N         144.6222  140.0710  164.6146 N.ar    1  UNL1       -0.1892
     23 C         144.8738  140.4436  163.1836 C.ar    1  UNL1        0.2029
     24 N         144.0367  139.8425  162.0937 N.ar    1  UNL1       -0.2045
     25 C         142.9480  138.8687  162.4348 C.ar    1  UNL1        0.1732
     26 C         142.6964  138.4961  163.8658 C.ar    1  UNL1        0.1099
     27 C         141.5611  137.5161  163.8970 C.ar    1  UNL1        0.1283
     28 N         141.1111  137.2831  162.4852 N.ar    1  UNL1       -0.1606
     29 N         141.9683  138.1191  161.5815 N.ar    1  UNL1       -0.1936
     30 C         141.8640  138.1925  160.0870 C.ar    1  UNL1        0.1759
     31 N         142.9002  137.5287  159.2293 N.ar    1  UNL1       -0.2242
     32 C         142.7959  137.6021  157.7347 C.ar    1  UNL1        0.1006
     33 C         141.6554  138.3393  157.0978 C.ar    1  UNL1        0.0217
     34 C         140.6192  139.0031  157.9554 C.ar    1  UNL1        0.0161
     35 C         140.7235  138.9297  159.4500 C.ar    1  UNL1        0.0935
     36 CL        139.6872  139.5935  160.3076 Cl      1  UNL1       -0.0790
@<TRIPOS>BOND
     1     2     3    2
     2     3     4   am
     3     4     6    1
     4     6     7   ar
     5     7     8   ar
     6     8     9   ar
     7     9    10    1
     8     9    11   ar
     9    11    12   ar
    10     3     1    1
    11     1    13    1
    12    13    14    1
    13    14    15    1
    14    15    16    1
    15    16    17    1
    16    16    18    1
    17     1    20    1
    18    20    21    1
    19    21    22   ar
    20    22    23   ar
    21    23    24   ar
    22    24    25   ar
    23    25    26   ar
    24    26    27   ar
    25    27    28   ar
    26    28    29   ar
    27    29    30    1
    28    30    31   ar
    29    31    32   ar
    30    32    33   ar
    31    33    34   ar
    32    34    35   ar
    33    35    36    1
    34    12     6   ar
    35    18    14    1
    36    26    21   ar
    37    35    30   ar
    38    29    25   ar
    39     4     5    1
    40    17    19    1
@<TRIPOS>MOLECULE
*****
 36 40 0 0 0
SMALL
GASTEIGER

@<TRIPOS>ATOM
      1 C         142.3251  139.2517  168.8644 C.3     1  UNL1        0.2588
      2 O         143.5450  139.5928  171.1328 O.2     1  UNL1       -0.2708
      3 C         143.1534  138.7048  169.9891 C.2     1  UNL1        0.2689
      4 N         143.5901  137.2699  169.9700 N.am    1  UNL1       -0.2664
      5 H         143.3331  136.6871  169.2193 H       1  UNL1        0.1564
      6 C         144.4184  136.7230  171.0945 C.ar    1  UNL1        0.1344
      7 C         144.3104  135.2749  171.4702 C.ar    1  UNL1        0.0368
      8 C         145.1387  134.7279  172.5948 C.ar    1  UNL1        0.0341
      9 C         146.0751  135.6292  173.3438 C.ar    1  UNL1        0.1593
     10 F         146.9034  135.0823  174.4684 F       1  UNL1       -0.2025
     11 C         146.1832  137.0774  172.9681 C.ar    1  UNL1        0.1298
     12 N         145.3548  137.6243  171.8435 N.ar    1  UNL1       -0.2267
     13 C         140.9745  139.8409  169.1453 C.3     1  UNL1        0.1261
     14 N         140.8480  141.2944  169.4935 N.3     1  UNL1       -0.2650
     15 C         141.1541  142.1256  170.7041 C.3     1  UNL1        0.1033
     16 C         140.6691  143.3500  169.9859 C.3     1  UNL1        0.1423
     17 O         140.5426  144.8035  170.3341 O.3     1  UNL1       -0.3816
     18 C         140.3631  142.5188  168.7755 C.3     1  UNL1        0.1033
     19 H         140.8564  144.9473  171.2407 H       1  UNL1        0.2105
     20 O         142.8473  139.2095  167.4589 O.3     1  UNL1       -0.4529
     21 C         142.0047  139.7247  166.3299 C.ar    1  UNL1        0.2312
     22 N         140.8944  138.8812  165.7771 N.ar    1  UNL1       -0.1892
     23 C         140.0518  139.3964  164.6481 C.ar    1  UNL1        0.2029
     24 N         140.3196  140.7552  164.0719 N.ar    1  UNL1       -0.2045
     25 C         141.4299  141.5987  164.6247 C.ar    1  UNL1        0.1732
     26 C         142.2725  141.0835  165.7537 C.ar    1  UNL1        0.1099
     27 C         143.2896  142.1335  166.0897 C.ar    1  UNL1        0.1283
     28 N         143.0757  143.2977  165.1684 N.ar    1  UNL1       -0.1606
     29 N         141.9263  142.9672  164.2630 N.ar    1  UNL1       -0.1936
     30 C         141.3709  143.8501  163.1851 C.ar    1  UNL1        0.1759
     31 N         140.1683  144.7034  163.4600 N.ar    1  UNL1       -0.2242
     32 C         139.6128  145.5864  162.3821 C.ar    1  UNL1        0.1006
     33 C         140.2599  145.6160  161.0292 C.ar    1  UNL1        0.0217
     34 C         141.4625  144.7627  160.7543 C.ar    1  UNL1        0.0161
     35 C         142.0180  143.8798  161.8322 C.ar    1  UNL1        0.0935
     36 CL        143.2206  143.0265  161.5572 Cl      1  UNL1       -0.0790
@<TRIPOS>BOND
     1     2     3    2
     2     3     4   am
     3     4     6    1
     4     6     7   ar
     5     7     8   ar
     6     8     9   ar
     7     9    10    1
     8     9    11   ar
     9    11    12   ar
    10     3     1    1
    11     1    13    1
    12    13    14    1
    13    14    15    1
    14    15    16    1
    15    16    17    1
    16    16    18    1
    17     1    20    1
    18    20    21    1
    19    21    22   ar
    20    22    23   ar
    21    23    24   ar
    22    24    25   ar
    23    25    26   ar
    24    26    27   ar
    25    27    28   ar
    26    28    29   ar
    27    29    30    1
    28    30    31   ar
    29    31    32   ar
    30    32    33   ar
    31    33    34   ar
    32    34    35   ar
    33    35    36    1
    34    12     6   ar
    35    18    14    1
    36    26    21   ar
    37    35    30   ar
    38    29    25   ar
    39     4     5    1
    40    17    19    1
@<TRIPOS>MOLECULE
*****
 36 40 0 0 0
SMALL
GASTEIGER

@<TRIPOS>ATOM
      1 C         139.3516  138.2376  161.5069 C.3     1  UNL1        0.2588
      2 O         139.2859  138.6650  158.9451 O.2     1  UNL1       -0.2708
      3 C         140.0678  138.4216  160.2018 C.2     1  UNL1        0.2689
      4 N         141.5658  138.3623  160.1534 N.am    1  UNL1       -0.2664
      5 H         142.0790  138.2025  160.9783 H       1  UNL1        0.1564
      6 C         142.2820  138.5463  158.8484 C.ar    1  UNL1        0.1344
      7 C         142.9541  139.8512  158.5392 C.ar    1  UNL1        0.0368
      8 C         143.6703  140.0352  157.2342 C.ar    1  UNL1        0.0341
      9 C         143.7144  138.9144  156.2382 C.ar    1  UNL1        0.1593
     10 F         144.4305  139.0984  154.9332 F       1  UNL1       -0.2025
     11 C         143.0423  137.6095  156.5474 C.ar    1  UNL1        0.1298
     12 N         142.3261  137.4255  157.8526 N.ar    1  UNL1       -0.2267
     13 C         138.0101  138.8729  161.7224 C.3     1  UNL1        0.1261
     14 N         137.9000  140.3618  161.8680 N.3     1  UNL1       -0.2650
     15 C         137.4009  141.2890  162.9362 C.3     1  UNL1        0.1033
     16 C         137.7443  142.4673  162.0739 C.3     1  UNL1        0.1423
     17 O         137.6343  143.9562  162.2195 O.3     1  UNL1       -0.3816
     18 C         138.2434  141.5401  161.0057 C.3     1  UNL1        0.1033
     19 H         137.2473  144.1688  163.0831 H       1  UNL1        0.2105
     20 O         139.9771  137.4181  162.5965 O.3     1  UNL1       -0.4529
     21 C         140.7574  138.0907  163.6869 C.ar    1  UNL1        0.2312
     22 N         142.2486  138.2104  163.5777 N.ar    1  UNL1       -0.1892
     23 C         143.0289  138.8829  164.6680 C.ar    1  UNL1        0.2029
     24 N         142.3179  139.4359  165.8675 N.ar    1  UNL1       -0.2045
     25 C         140.8268  139.3162  165.9767 C.ar    1  UNL1        0.1732
     26 C         140.0465  138.6436  164.8864 C.ar    1  UNL1        0.1099
     27 C         138.5961  138.6737  165.2681 C.ar    1  UNL1        0.1283
     28 N         138.4801  139.3648  166.5943 N.ar    1  UNL1       -0.1606
     29 N         139.8587  139.7619  167.0322 N.ar    1  UNL1       -0.1936
     30 C         140.2079  140.4789  168.3027 C.ar    1  UNL1        0.1759
     31 N         140.2559  139.7267  169.5995 N.ar    1  UNL1       -0.2242
     32 C         140.6051  140.4436  170.8699 C.ar    1  UNL1        0.1006
     33 C         140.9063  141.9129  170.8436 C.ar    1  UNL1        0.0217
     34 C         140.8583  142.6650  169.5467 C.ar    1  UNL1        0.0161
     35 C         140.5091  141.9481  168.2763 C.ar    1  UNL1        0.0935
     36 CL        140.4611  142.7003  166.9794 Cl      1  UNL1       -0.0790
@<TRIPOS>BOND
     1     2     3    2
     2     3     4   am
     3     4     6    1
     4     6     7   ar
     5     7     8   ar
     6     8     9   ar
     7     9    10    1
     8     9    11   ar
     9    11    12   ar
    10     3     1    1
    11     1    13    1
    12    13    14    1
    13    14    15    1
    14    15    16    1
    15    16    17    1
    16    16    18    1
    17     1    20    1
    18    20    21    1
    19    21    22   ar
    20    22    23   ar
    21    23    24   ar
    22    24    25   ar
    23    25    26   ar
    24    26    27   ar
    25    27    28   ar
    26    28    29   ar
    27    29    30    1
    28    30    31   ar
    29    31    32   ar
    30    32    33   ar
    31    33    34   ar
    32    34    35   ar
    33    35    36    1
    34    12     6   ar
    35    18    14    1
    36    26    21   ar
    37    35    30   ar
    38    29    25   ar
    39     4     5    1
    40    17    19    1
@<TRIPOS>MOLECULE
*****
 36 40 0 0 0
SMALL
GASTEIGER

@<TRIPOS>ATOM
      1 C         139.0525  138.4791  162.5226 C.3     1  UNL1        0.2588
      2 O         138.9093  137.5032  164.9262 O.2     1  UNL1       -0.2708
      3 C         139.3684  138.5778  163.9857 C.2     1  UNL1        0.2689
      4 N         140.1433  139.7510  164.5082 N.am    1  UNL1       -0.2664
      5 H         140.4446  140.4563  163.8909 H       1  UNL1        0.1564
      6 C         140.4592  139.8497  165.9712 C.ar    1  UNL1        0.1344
      7 C         141.8603  139.6165  166.4534 C.ar    1  UNL1        0.0368
      8 C         142.1762  139.7152  167.9164 C.ar    1  UNL1        0.0341
      9 C         141.0909  140.0471  168.8973 C.ar    1  UNL1        0.1593
     10 F         141.4068  140.1458  170.3603 F       1  UNL1       -0.2025
     11 C         139.6898  140.2803  168.4151 C.ar    1  UNL1        0.1298
     12 N         139.3740  140.1816  166.9520 N.ar    1  UNL1       -0.2267
     13 C         137.9009  139.2511  161.9503 C.3     1  UNL1        0.1261
     14 N         137.8375  140.7401  162.1206 N.3     1  UNL1       -0.2650
     15 C         138.2512  141.9209  161.2932 C.3     1  UNL1        0.1033
     16 C         137.7478  142.8457  162.3615 C.3     1  UNL1        0.1423
     17 O         137.6844  144.3347  162.5318 O.3     1  UNL1       -0.3816
     18 C         137.3341  141.6650  163.1888 C.3     1  UNL1        0.1033
     19 H         138.0661  144.7660  161.7513 H       1  UNL1        0.2105
     20 O         139.8884  137.6084  161.6320 O.3     1  UNL1       -0.4529
     21 C         141.2825  138.0263  161.2687 C.ar    1  UNL1        0.2312
     22 N         142.4216  137.7254  162.1970 N.ar    1  UNL1       -0.1892
     23 C         143.8156  138.1433  161.8336 C.ar    1  UNL1        0.2029
     24 N         144.0705  138.8620  160.5420 N.ar    1  UNL1       -0.2045
     25 C         142.9314  139.1629  159.6136 C.ar    1  UNL1        0.1732
     26 C         141.5374  138.7450  159.9770 C.ar    1  UNL1        0.1099
     27 C         140.6210  139.1757  158.8702 C.ar    1  UNL1        0.1283
     28 N         141.4487  139.8598  157.8229 N.ar    1  UNL1       -0.1606
     29 N         142.8766  139.8518  158.2823 N.ar    1  UNL1       -0.1936
     30 C         144.0446  140.4312  157.5407 C.ar    1  UNL1        0.1759
     31 N         144.6510  139.6806  156.3923 N.ar    1  UNL1       -0.2242
     32 C         145.8190  140.2599  155.6507 C.ar    1  UNL1        0.1006
     33 C         146.3808  141.5899  156.0575 C.ar    1  UNL1        0.0217
     34 C         145.7745  142.3405  157.2059 C.ar    1  UNL1        0.0161
     35 C         144.6065  141.7611  157.9475 C.ar    1  UNL1        0.0935
     36 CL        144.0002  142.5118  159.0960 Cl      1  UNL1       -0.0790
@<TRIPOS>BOND
     1     2     3    2
     2     3     4   am
     3     4     6    1
     4     6     7   ar
     5     7     8   ar
     6     8     9   ar
     7     9    10    1
     8     9    11   ar
     9    11    12   ar
    10     3     1    1
    11     1    13    1
    12    13    14    1
    13    14    15    1
    14    15    16    1
    15    16    17    1
    16    16    18    1
    17     1    20    1
    18    20    21    1
    19    21    22   ar
    20    22    23   ar
    21    23    24   ar
    22    24    25   ar
    23    25    26   ar
    24    26    27   ar
    25    27    28   ar
    26    28    29   ar
    27    29    30    1
    28    30    31   ar
    29    31    32   ar
    30    32    33   ar
    31    33    34   ar
    32    34    35   ar
    33    35    36    1
    34    12     6   ar
    35    18    14    1
    36    26    21   ar
    37    35    30   ar
    38    29    25   ar
    39     4     5    1
    40    17    19    1
@<TRIPOS>MOLECULE
*****
 36 40 0 0 0
SMALL
GASTEIGER

@<TRIPOS>ATOM
      1 C         140.9471  144.7072  160.1270 C.3     1  UNL1        0.2588
      2 O         142.2418  146.0014  158.2834 O.2     1  UNL1       -0.2708
      3 C         140.9487  145.4957  158.8509 C.2     1  UNL1        0.2689
      4 N         139.6572  145.7785  158.1424 N.am    1  UNL1       -0.2664
      5 H         138.8085  145.4466  158.5149 H       1  UNL1        0.1564
      6 C         139.6588  146.5670  156.8664 C.ar    1  UNL1        0.1344
      7 C         140.4074  146.0572  155.6706 C.ar    1  UNL1        0.0368
      8 C         140.4089  146.8457  154.3946 C.ar    1  UNL1        0.0341
      9 C         139.6619  148.1440  154.3143 C.ar    1  UNL1        0.1593
     10 F         139.6635  148.9324  153.0383 F       1  UNL1       -0.2025
     11 C         138.9133  148.6537  155.5100 C.ar    1  UNL1        0.1298
     12 N         138.9117  147.8652  156.7861 N.ar    1  UNL1       -0.2267
     13 C         141.0527  143.2116  160.0846 C.3     1  UNL1        0.1261
     14 N         139.8735  142.3653  160.4630 N.3     1  UNL1       -0.2650
     15 C         139.6469  141.2246  161.4104 C.3     1  UNL1        0.1033
     16 C         138.2057  141.1686  160.9982 C.3     1  UNL1        0.1423
     17 O         137.0265  140.3224  161.3766 O.3     1  UNL1       -0.3816
     18 C         138.4323  142.3092  160.0509 C.3     1  UNL1        0.1033
     19 H         137.2959  139.6724  162.0443 H       1  UNL1        0.2105
     20 O         140.8398  145.4144  161.4455 O.3     1  UNL1       -0.4529
     21 C         140.0160  144.8213  162.5498 C.ar    1  UNL1        0.2312
     22 N         138.5201  144.9239  162.5078 N.ar    1  UNL1       -0.1892
     23 C         137.6964  144.3307  163.6122 C.ar    1  UNL1        0.2029
     24 N         138.3686  143.6350  164.7586 N.ar    1  UNL1       -0.2045
     25 C         139.8644  143.5324  164.8006 C.ar    1  UNL1        0.1732
     26 C         140.6882  144.1255  163.6962 C.ar    1  UNL1        0.1099
     27 C         142.1332  143.8705  164.0074 C.ar    1  UNL1        0.1283
     28 N         142.2026  143.1197  165.3042 N.ar    1  UNL1       -0.1606
     29 N         140.8004  142.9108  165.7943 N.ar    1  UNL1       -0.1936
     30 C         140.4037  142.2042  167.0567 C.ar    1  UNL1        0.1759
     31 N         140.4638  142.9255  168.3705 N.ar    1  UNL1       -0.2242
     32 C         140.0672  142.2189  169.6328 C.ar    1  UNL1        0.1006
     33 C         139.6104  140.7911  169.5813 C.ar    1  UNL1        0.0217
     34 C         139.5503  140.0699  168.2675 C.ar    1  UNL1        0.0161
     35 C         139.9470  140.7764  167.0052 C.ar    1  UNL1        0.0935
     36 CL        139.8869  140.0551  165.6914 Cl      1  UNL1       -0.0790
@<TRIPOS>BOND
     1     2     3    2
     2     3     4   am
     3     4     6    1
     4     6     7   ar
     5     7     8   ar
     6     8     9   ar
     7     9    10    1
     8     9    11   ar
     9    11    12   ar
    10     3     1    1
    11     1    13    1
    12    13    14    1
    13    14    15    1
    14    15    16    1
    15    16    17    1
    16    16    18    1
    17     1    20    1
    18    20    21    1
    19    21    22   ar
    20    22    23   ar
    21    23    24   ar
    22    24    25   ar
    23    25    26   ar
    24    26    27   ar
    25    27    28   ar
    26    28    29   ar
    27    29    30    1
    28    30    31   ar
    29    31    32   ar
    30    32    33   ar
    31    33    34   ar
    32    34    35   ar
    33    35    36    1
    34    12     6   ar
    35    18    14    1
    36    26    21   ar
    37    35    30   ar
    38    29    25   ar
    39     4     5    1
    40    17    19    1
@<TRIPOS>MOLECULE
*****
 36 40 0 0 0
SMALL
GASTEIGER

@<TRIPOS>ATOM
      1 C         138.5116  142.2846  164.4491 C.3     1  UNL1        0.2588
      2 O         140.5540  142.8550  165.9502 O.2     1  UNL1       -0.2708
      3 C         139.4564  141.9128  165.5533 C.2     1  UNL1        0.2689
      4 N         139.3035  140.5989  166.2606 N.am    1  UNL1       -0.2664
      5 H         138.5831  139.9805  166.0001 H       1  UNL1        0.1564
      6 C         140.2483  140.2272  167.3647 C.ar    1  UNL1        0.1344
      7 C         139.7904  140.2773  168.7922 C.ar    1  UNL1        0.0368
      8 C         140.7351  139.9055  169.8964 C.ar    1  UNL1        0.0341
      9 C         142.1379  139.4837  169.5731 C.ar    1  UNL1        0.1593
     10 F         143.0826  139.1119  170.6772 F       1  UNL1       -0.2025
     11 C         142.5958  139.4336  168.1456 C.ar    1  UNL1        0.1298
     12 N         141.6509  139.8054  167.0414 N.ar    1  UNL1       -0.2267
     13 C         138.4089  143.7115  163.9984 C.3     1  UNL1        0.1261
     14 N         139.3791  144.2512  162.9897 N.3     1  UNL1       -0.2650
     15 C         139.4356  145.4719  162.1198 C.3     1  UNL1        0.1033
     16 C         140.7511  145.0143  161.5631 C.3     1  UNL1        0.1423
     17 O         141.7213  145.5539  160.5544 O.3     1  UNL1       -0.3816
     18 C         140.6946  143.7936  162.4329 C.3     1  UNL1        0.1033
     19 H         141.3876  146.3938  160.2020 H       1  UNL1        0.2105
     20 O         137.6694  141.2292  163.7955 O.3     1  UNL1       -0.4529
     21 C         138.3234  140.0769  163.0923 C.ar    1  UNL1        0.2312
     22 N         138.5890  138.7996  163.8324 N.ar    1  UNL1       -0.1892
     23 C         139.2430  137.6473  163.1292 C.ar    1  UNL1        0.2029
     24 N         139.6313  137.7724  161.6857 N.ar    1  UNL1       -0.2045
     25 C         139.3657  139.0497  160.9455 C.ar    1  UNL1        0.1732
     26 C         138.7117  140.2019  161.6488 C.ar    1  UNL1        0.1099
     27 C         138.5770  141.3281  160.6671 C.ar    1  UNL1        0.1283
     28 N         139.1477  140.8718  159.3571 N.ar    1  UNL1       -0.1606
     29 N         139.6351  139.4637  159.5292 N.ar    1  UNL1       -0.1936
     30 C         140.2789  138.6180  158.4708 C.ar    1  UNL1        0.1759
     31 N         139.4455  138.0287  157.3717 N.ar    1  UNL1       -0.2242
     32 C         140.0893  137.1830  156.3132 C.ar    1  UNL1        0.1006
     33 C         141.5667  136.9265  156.3539 C.ar    1  UNL1        0.0217
     34 C         142.4001  137.5158  157.4530 C.ar    1  UNL1        0.0161
     35 C         141.7563  138.3615  158.5115 C.ar    1  UNL1        0.0935
     36 CL        142.5898  138.9507  159.6106 Cl      1  UNL1       -0.0790
@<TRIPOS>BOND
     1     2     3    2
     2     3     4   am
     3     4     6    1
     4     6     7   ar
     5     7     8   ar
     6     8     9   ar
     7     9    10    1
     8     9    11   ar
     9    11    12   ar
    10     3     1    1
    11     1    13    1
    12    13    14    1
    13    14    15    1
    14    15    16    1
    15    16    17    1
    16    16    18    1
    17     1    20    1
    18    20    21    1
    19    21    22   ar
    20    22    23   ar
    21    23    24   ar
    22    24    25   ar
    23    25    26   ar
    24    26    27   ar
    25    27    28   ar
    26    28    29   ar
    27    29    30    1
    28    30    31   ar
    29    31    32   ar
    30    32    33   ar
    31    33    34   ar
    32    34    35   ar
    33    35    36    1
    34    12     6   ar
    35    18    14    1
    36    26    21   ar
    37    35    30   ar
    38    29    25   ar
    39     4     5    1
    40    17    19    1
@<TRIPOS>MOLECULE
*****
 36 40 0 0 0
SMALL
GASTEIGER

@<TRIPOS>ATOM
      1 C         141.1767  138.5273  164.4405 C.3     1  UNL1        0.2588
      2 O         139.9171  139.4986  166.4948 O.2     1  UNL1       -0.2708
      3 C         141.2002  139.2282  165.7665 C.2     1  UNL1        0.2689
      4 N         142.5069  139.6588  166.3642 N.am    1  UNL1       -0.2664
      5 H         143.3491  139.4813  165.8861 H       1  UNL1        0.1564
      6 C         142.5305  140.3597  167.6901 C.ar    1  UNL1        0.1344
      7 C         142.2636  141.8339  167.7640 C.ar    1  UNL1        0.0368
      8 C         142.2872  142.5349  169.0899 C.ar    1  UNL1        0.0341
      9 C         142.5776  141.7616  170.3420 C.ar    1  UNL1        0.1593
     10 F         142.6012  142.4625  171.6679 F       1  UNL1       -0.2025
     11 C         142.8445  140.2873  170.2681 C.ar    1  UNL1        0.1298
     12 N         142.8209  139.5864  168.9421 N.ar    1  UNL1       -0.2267
     13 C         142.4634  138.1973  163.7437 C.3     1  UNL1        0.1261
     14 N         143.4538  139.2831  163.4438 N.3     1  UNL1       -0.2650
     15 C         143.4836  140.4669  162.5230 C.3     1  UNL1        0.1033
     16 C         144.8545  140.8188  163.0197 C.3     1  UNL1        0.1423
     17 O         145.8449  141.9046  162.7199 O.3     1  UNL1       -0.3816
     18 C         144.8247  139.6351  163.9405 C.3     1  UNL1        0.1033
     19 H         145.4802  142.4973  162.0441 H       1  UNL1        0.2105
     20 O         139.8665  138.1563  163.8114 O.3     1  UNL1       -0.4529
     21 C         139.0778  139.1864  163.0584 C.ar    1  UNL1        0.2312
     22 N         138.2226  140.1682  163.8032 N.ar    1  UNL1       -0.1892
     23 C         137.4339  141.1982  163.0501 C.ar    1  UNL1        0.2029
     24 N         137.5005  141.2464  161.5524 N.ar    1  UNL1       -0.2045
     25 C         138.3557  140.2646  160.8077 C.ar    1  UNL1        0.1732
     26 C         139.1444  139.2346  161.5607 C.ar    1  UNL1        0.1099
     27 C         139.8943  138.4036  160.5620 C.ar    1  UNL1        0.1283
     28 N         139.5691  138.9201  159.1919 N.ar    1  UNL1       -0.1606
     29 N         138.6182  140.0703  159.3437 N.ar    1  UNL1       -0.1936
     30 C         138.0326  140.8833  158.2274 C.ar    1  UNL1        0.1759
     31 N         136.8302  140.3810  157.4844 N.ar    1  UNL1       -0.2242
     32 C         136.2446  141.1941  156.3682 C.ar    1  UNL1        0.1006
     33 C         136.8613  142.5095  155.9949 C.ar    1  UNL1        0.0217
     34 C         138.0637  143.0118  156.7379 C.ar    1  UNL1        0.0161
     35 C         138.6493  142.1987  157.8542 C.ar    1  UNL1        0.0935
     36 CL        139.8516  142.7011  158.5971 Cl      1  UNL1       -0.0790
@<TRIPOS>BOND
     1     2     3    2
     2     3     4   am
     3     4     6    1
     4     6     7   ar
     5     7     8   ar
     6     8     9   ar
     7     9    10    1
     8     9    11   ar
     9    11    12   ar
    10     3     1    1
    11     1    13    1
    12    13    14    1
    13    14    15    1
    14    15    16    1
    15    16    17    1
    16    16    18    1
    17     1    20    1
    18    20    21    1
    19    21    22   ar
    20    22    23   ar
    21    23    24   ar
    22    24    25   ar
    23    25    26   ar
    24    26    27   ar
    25    27    28   ar
    26    28    29   ar
    27    29    30    1
    28    30    31   ar
    29    31    32   ar
    30    32    33   ar
    31    33    34   ar
    32    34    35   ar
    33    35    36    1
    34    12     6   ar
    35    18    14    1
    36    26    21   ar
    37    35    30   ar
    38    29    25   ar
    39     4     5    1
    40    17    19    1
@<TRIPOS>MOLECULE
*****
 36 40 0 0 0
SMALL
GASTEIGER

@<TRIPOS>ATOM
      1 C         141.4446  138.5240  162.7737 C.3     1  UNL1        0.2588
      2 O         139.4747  139.2969  164.2812 O.2     1  UNL1       -0.2708
      3 C         140.6787  139.6234  163.4483 C.2     1  UNL1        0.2689
      4 N         141.1170  141.0492  163.2900 N.am    1  UNL1       -0.2664
      5 H         141.9072  141.2634  162.7434 H       1  UNL1        0.1564
      6 C         140.3512  142.1485  163.9646 C.ar    1  UNL1        0.1344
      7 C         139.3307  142.9333  163.1948 C.ar    1  UNL1        0.0368
      8 C         138.5650  144.0326  163.8694 C.ar    1  UNL1        0.0341
      9 C         138.8197  144.3471  165.3139 C.ar    1  UNL1        0.1593
     10 F         138.0539  145.4464  165.9884 F       1  UNL1       -0.2025
     11 C         139.8402  143.5622  166.0836 C.ar    1  UNL1        0.1298
     12 N         140.6059  142.4629  165.4090 N.ar    1  UNL1       -0.2267
     13 C         142.8383  138.1968  163.2214 C.3     1  UNL1        0.1261
     14 N         143.8850  139.2705  163.2604 N.3     1  UNL1       -0.2650
     15 C         144.7780  139.8433  164.3209 C.3     1  UNL1        0.1033
     16 C         145.3654  140.7889  163.3155 C.3     1  UNL1        0.1423
     17 O         146.4122  141.8625  163.3545 O.3     1  UNL1       -0.3816
     18 C         144.4725  140.2161  162.2551 C.3     1  UNL1        0.1033
     19 H         146.7695  141.9333  164.2535 H       1  UNL1        0.2105
     20 O         140.8166  137.7520  161.6514 O.3     1  UNL1       -0.4529
     21 C         140.6446  138.3914  160.3054 C.ar    1  UNL1        0.2312
     22 N         141.7604  138.3435  159.3041 N.ar    1  UNL1       -0.1892
     23 C         141.5884  138.9829  157.9582 C.ar    1  UNL1        0.2029
     24 N         140.3005  139.6703  157.6136 N.ar    1  UNL1       -0.2045
     25 C         139.1846  139.7182  158.6148 C.ar    1  UNL1        0.1732
     26 C         139.3567  139.0788  159.9607 C.ar    1  UNL1        0.1099
     27 C         138.0899  139.2850  160.7372 C.ar    1  UNL1        0.1283
     28 N         137.1350  140.0518  159.8712 N.ar    1  UNL1       -0.1606
     29 N         137.8115  140.3196  158.5595 N.ar    1  UNL1       -0.1936
     30 C         137.2191  141.0589  157.3966 C.ar    1  UNL1        0.1759
     31 N         136.1622  140.4084  156.5540 N.ar    1  UNL1       -0.2242
     32 C         135.5697  141.1477  155.3911 C.ar    1  UNL1        0.1006
     33 C         136.0341  142.5376  155.0707 C.ar    1  UNL1        0.0217
     34 C         137.0910  143.1880  155.9132 C.ar    1  UNL1        0.0161
     35 C         137.6835  142.4487  157.0761 C.ar    1  UNL1        0.0935
     36 CL        138.7404  143.0992  157.9186 Cl      1  UNL1       -0.0790
@<TRIPOS>BOND
     1     2     3    2
     2     3     4   am
     3     4     6    1
     4     6     7   ar
     5     7     8   ar
     6     8     9   ar
     7     9    10    1
     8     9    11   ar
     9    11    12   ar
    10     3     1    1
    11     1    13    1
    12    13    14    1
    13    14    15    1
    14    15    16    1
    15    16    17    1
    16    16    18    1
    17     1    20    1
    18    20    21    1
    19    21    22   ar
    20    22    23   ar
    21    23    24   ar
    22    24    25   ar
    23    25    26   ar
    24    26    27   ar
    25    27    28   ar
    26    28    29   ar
    27    29    30    1
    28    30    31   ar
    29    31    32   ar
    30    32    33   ar
    31    33    34   ar
    32    34    35   ar
    33    35    36    1
    34    12     6   ar
    35    18    14    1
    36    26    21   ar
    37    35    30   ar
    38    29    25   ar
    39     4     5    1
    40    17    19    1
