@<TRIPOS>MOLECULE
*****
 34 38 0 0 0
SMALL
GASTEIGER

@<TRIPOS>ATOM
      1 N         138.4872  140.9250  164.1283 N.3     1  UNL1       -0.2704
      2 C         139.1014  140.6637  162.7850 C.3     1  UNL1        0.0722
      3 C         139.4872  141.8122  161.9007 C.3     1  UNL1        0.0195
      4 C         139.2588  143.2219  162.3596 C.3     1  UNL1        0.0300
      5 C         138.6446  143.4831  163.7029 C.3     1  UNL1        0.0195
      6 C         138.2588  142.3346  164.5872 C.3     1  UNL1        0.0722
      7 C         139.0920  144.6774  162.6816 C.3     1  UNL1        0.0873
      8 C         139.6093  145.4717  161.5189 C.2     1  UNL1        0.2294
      9 O         139.6355  146.9678  161.4150 O.2     1  UNL1       -0.2745
     10 N         140.0958  144.5069  160.4784 N.am    1  UNL1       -0.2572
     11 C         139.8792  143.1166  160.9979 C.3     1  UNL1        0.0987
     12 C         140.6939  144.8690  159.1514 C.ar    1  UNL1        0.0737
     13 C         142.0482  144.3477  158.7717 C.ar    1  UNL1        0.1137
     14 N         142.6463  144.7098  157.4446 N.ar    1  UNL1       -0.2403
     15 C         141.8901  145.5932  156.4972 C.ar    1  UNL1        0.1092
     16 C         140.5358  146.1146  156.8768 C.ar    1  UNL1        0.0888
     17 C         139.9378  145.7525  158.2039 C.ar    1  UNL1        0.0283
     18 C         139.7796  146.9981  155.9293 C.1     1  UNL1        0.1020
     19 N         139.0235  147.8815  154.9818 N.1     1  UNL1       -0.1908
     20 C         138.1013  139.7764  165.0127 C.3     1  UNL1        0.1063
     21 C         139.1213  139.1505  165.9169 C.3     1  UNL1        0.1483
     22 O         139.7266  137.8250  165.5608 O.3     1  UNL1       -0.3786
     23 H         140.3621  137.5652  166.2460 H       1  UNL1        0.2108
     24 C         141.5854  140.8617  165.9414 C.3     1  UNL1        0.0306
     25 C         140.7682  140.7056  167.1896 C.ar    1  UNL1       -0.0238
     26 C         139.5362  139.8500  167.1773 C.ar    1  UNL1        0.0015
     27 C         138.7190  139.6939  168.4255 C.ar    1  UNL1       -0.0020
     28 C         139.1338  140.3934  169.6859 C.ar    1  UNL1        0.0060
     29 C         140.3658  141.2490  169.6981 C.ar    1  UNL1        0.0748
     30 C         141.1830  141.4051  168.4500 C.ar    1  UNL1        0.0233
     31 C         142.3398  142.3072  168.7631 C.3     1  UNL1        0.2352
     32 O         142.2376  142.7086  170.2048 O.3     1  UNL1       -0.4404
     33 C         141.0176  142.0546  170.7826 C.2     1  UNL1        0.3413
     34 O         140.5342  142.1836  172.1967 O.2     1  UNL1       -0.2449
@<TRIPOS>BOND
     1    24    25    1
     2    25    26   ar
     3    26    21    1
     4    21    22    1
     5    21    20    1
     6    20     1    1
     7     1     2    1
     8     2     3    1
     9     3     4    1
    10     4     5    1
    11     5     6    1
    12     4     7    1
    13     7     8    1
    14     8     9    2
    15     8    10   am
    16    10    12    1
    17    12    13   ar
    18    13    14   ar
    19    14    15   ar
    20    15    16   ar
    21    16    18    1
    22    18    19    3
    23    16    17   ar
    24    10    11    1
    25    26    27   ar
    26    27    28   ar
    27    28    29   ar
    28    29    30   ar
    29    30    31    1
    30    31    32    1
    31    32    33    1
    32    33    34    2
    33    30    25   ar
    34     6     1    1
    35    17    12   ar
    36    33    29    1
    37    11     4    1
    38    22    23    1
@<TRIPOS>MOLECULE
*****
 34 38 0 0 0
SMALL
GASTEIGER

@<TRIPOS>ATOM
      1 N         139.8270  138.5724  161.2797 N.3     1  UNL1       -0.2704
      2 C         140.9085  139.3589  161.9593 C.3     1  UNL1        0.0722
      3 C         140.8327  139.6185  163.4346 C.3     1  UNL1        0.0195
      4 C         139.6755  139.0916  164.2304 C.3     1  UNL1        0.0300
      5 C         138.5940  138.3052  163.5508 C.3     1  UNL1        0.0195
      6 C         138.6698  138.0455  162.0755 C.3     1  UNL1        0.0722
      7 C         138.5853  138.6308  165.1519 C.3     1  UNL1        0.0873
      8 C         138.9127  139.1120  166.5345 C.2     1  UNL1        0.2294
      9 O         138.0917  138.8764  167.7675 O.2     1  UNL1       -0.2745
     10 N         140.2052  139.8703  166.4674 N.am    1  UNL1       -0.2572
     11 C         140.6766  139.8577  165.0435 C.3     1  UNL1        0.0987
     12 C         140.9036  140.5260  167.6215 C.ar    1  UNL1        0.0737
     13 C         142.1237  139.8903  168.2191 C.ar    1  UNL1        0.1137
     14 N         142.8222  140.5460  169.3733 N.ar    1  UNL1       -0.2403
     15 C         142.3005  141.8375  169.9300 C.ar    1  UNL1        0.1092
     16 C         141.0803  142.4733  169.3324 C.ar    1  UNL1        0.0888
     17 C         140.3819  141.8175  168.1782 C.ar    1  UNL1        0.0283
     18 C         140.5586  143.7648  169.8891 C.1     1  UNL1        0.1020
     19 N         140.0369  145.0563  170.4457 N.1     1  UNL1       -0.1908
     20 C         139.9027  138.3127  159.8042 C.3     1  UNL1        0.1063
     21 C         139.5002  139.3825  158.8328 C.3     1  UNL1        0.1483
     22 O         138.9700  139.0069  157.4808 O.3     1  UNL1       -0.3786
     23 H         138.7590  139.8113  156.9814 H       1  UNL1        0.2108
     24 C         141.9716  140.9150  158.0954 C.3     1  UNL1        0.0306
     25 C         140.8636  141.5940  158.8446 C.ar    1  UNL1       -0.0238
     26 C         139.6280  140.8278  159.2133 C.ar    1  UNL1        0.0015
     27 C         138.5200  141.5068  159.9626 C.ar    1  UNL1       -0.0020
     28 C         138.6477  142.9521  160.3431 C.ar    1  UNL1        0.0060
     29 C         139.8833  143.7183  159.9744 C.ar    1  UNL1        0.0748
     30 C         140.9913  143.0393  159.2252 C.ar    1  UNL1        0.0233
     31 C         142.0823  144.0439  159.0002 C.3     1  UNL1        0.2352
     32 O         141.6486  145.3437  159.6103 O.3     1  UNL1       -0.4404
     33 C         140.2896  145.1425  160.2124 C.2     1  UNL1        0.3413
     34 O         139.4791  146.1829  160.9271 O.2     1  UNL1       -0.2449
@<TRIPOS>BOND
     1    24    25    1
     2    25    26   ar
     3    26    21    1
     4    21    22    1
     5    21    20    1
     6    20     1    1
     7     1     2    1
     8     2     3    1
     9     3     4    1
    10     4     5    1
    11     5     6    1
    12     4     7    1
    13     7     8    1
    14     8     9    2
    15     8    10   am
    16    10    12    1
    17    12    13   ar
    18    13    14   ar
    19    14    15   ar
    20    15    16   ar
    21    16    18    1
    22    18    19    3
    23    16    17   ar
    24    10    11    1
    25    26    27   ar
    26    27    28   ar
    27    28    29   ar
    28    29    30   ar
    29    30    31    1
    30    31    32    1
    31    32    33    1
    32    33    34    2
    33    30    25   ar
    34     6     1    1
    35    17    12   ar
    36    33    29    1
    37    11     4    1
    38    22    23    1
@<TRIPOS>MOLECULE
*****
 34 38 0 0 0
SMALL
GASTEIGER

@<TRIPOS>ATOM
      1 N         139.7312  138.4769  162.0721 N.3     1  UNL1       -0.2704
      2 C         139.1992  139.3342  163.1820 C.3     1  UNL1        0.0722
      3 C         139.9654  139.4604  164.4654 C.3     1  UNL1        0.0195
      4 C         141.2636  138.7293  164.6388 C.3     1  UNL1        0.0300
      5 C         141.7957  137.8720  163.5289 C.3     1  UNL1        0.0195
      6 C         141.0295  137.7458  162.2456 C.3     1  UNL1        0.0722
      7 C         142.5689  138.0615  164.9557 C.3     1  UNL1        0.0873
      8 C         142.9711  138.4650  166.3434 C.2     1  UNL1        0.2294
      9 O         144.2121  138.0280  167.0638 O.2     1  UNL1       -0.2745
     10 N         141.9143  139.3821  166.8841 N.am    1  UNL1       -0.2572
     11 C         140.8591  139.5454  165.8306 C.3     1  UNL1        0.0987
     12 C         141.9131  140.0232  168.2401 C.ar    1  UNL1        0.0737
     13 C         142.5313  139.3114  169.4068 C.ar    1  UNL1        0.1137
     14 N         142.5300  139.9526  170.7629 N.ar    1  UNL1       -0.2403
     15 C         141.9106  141.3055  170.9522 C.ar    1  UNL1        0.1092
     16 C         141.2923  142.0173  169.7855 C.ar    1  UNL1        0.0888
     17 C         141.2936  141.3761  168.4295 C.ar    1  UNL1        0.0283
     18 C         140.6728  143.3703  169.9749 C.1     1  UNL1        0.1020
     19 N         140.0534  144.7232  170.1643 N.1     1  UNL1       -0.1908
     20 C         138.9650  138.3507  160.7887 C.3     1  UNL1        0.1063
     21 C         139.0998  139.4028  159.7282 C.3     1  UNL1        0.1483
     22 O         138.8722  139.0497  158.2882 O.3     1  UNL1       -0.3786
     23 H         138.9982  139.8386  157.7380 H       1  UNL1        0.2108
     24 C         141.9616  140.2960  159.6161 C.3     1  UNL1        0.0306
     25 C         140.8932  141.2547  160.0515 C.ar    1  UNL1       -0.0238
     26 C         139.4623  140.8080  160.1075 C.ar    1  UNL1        0.0015
     27 C         138.3939  141.7667  160.5429 C.ar    1  UNL1       -0.0020
     28 C         138.7563  143.1719  160.9223 C.ar    1  UNL1        0.0060
     29 C         140.1872  143.6185  160.8663 C.ar    1  UNL1        0.0748
     30 C         141.2556  142.6599  160.4309 C.ar    1  UNL1        0.0233
     31 C         142.5705  143.3805  160.4739 C.3     1  UNL1        0.2352
     32 O         142.3147  144.7845  160.9359 O.3     1  UNL1       -0.4404
     33 C         140.8418  144.9316  161.1784 C.2     1  UNL1        0.3413
     34 O         140.1456  146.1736  161.6501 O.2     1  UNL1       -0.2449
@<TRIPOS>BOND
     1    24    25    1
     2    25    26   ar
     3    26    21    1
     4    21    22    1
     5    21    20    1
     6    20     1    1
     7     1     2    1
     8     2     3    1
     9     3     4    1
    10     4     5    1
    11     5     6    1
    12     4     7    1
    13     7     8    1
    14     8     9    2
    15     8    10   am
    16    10    12    1
    17    12    13   ar
    18    13    14   ar
    19    14    15   ar
    20    15    16   ar
    21    16    18    1
    22    18    19    3
    23    16    17   ar
    24    10    11    1
    25    26    27   ar
    26    27    28   ar
    27    28    29   ar
    28    29    30   ar
    29    30    31    1
    30    31    32    1
    31    32    33    1
    32    33    34    2
    33    30    25   ar
    34     6     1    1
    35    17    12   ar
    36    33    29    1
    37    11     4    1
    38    22    23    1
@<TRIPOS>MOLECULE
*****
 34 38 0 0 0
SMALL
GASTEIGER

@<TRIPOS>ATOM
      1 N         142.3991  137.9594  161.7175 N.3     1  UNL1       -0.2704
      2 C         143.2880  138.6440  162.7130 C.3     1  UNL1        0.0722
      3 C         142.7403  139.0597  164.0462 C.3     1  UNL1        0.0195
      4 C         141.3037  138.7907  164.3837 C.3     1  UNL1        0.0300
      5 C         140.4149  138.1060  163.3882 C.3     1  UNL1        0.0195
      6 C         140.9626  137.6904  162.0551 C.3     1  UNL1        0.0722
      7 C         139.8956  138.5895  164.8600 C.3     1  UNL1        0.0873
      8 C         139.7896  139.1550  166.2454 C.2     1  UNL1        0.2294
      9 O         138.5574  139.1677  167.1006 O.2     1  UNL1       -0.2745
     10 N         141.1323  139.7056  166.6252 N.am    1  UNL1       -0.2572
     11 C         142.0680  139.4805  165.4747 C.3     1  UNL1        0.0987
     12 C         141.4783  140.3655  167.9270 C.ar    1  UNL1        0.0737
     13 C         142.4523  139.7133  168.8629 C.ar    1  UNL1        0.1137
     14 N         142.7984  140.3732  170.1647 N.ar    1  UNL1       -0.2403
     15 C         142.1705  141.6854  170.5307 C.ar    1  UNL1        0.1092
     16 C         141.1964  142.3377  169.5948 C.ar    1  UNL1        0.0888
     17 C         140.8504  141.6777  168.2930 C.ar    1  UNL1        0.0283
     18 C         140.5685  143.6498  169.9607 C.1     1  UNL1        0.1020
     19 N         139.9405  144.9620  170.3267 N.1     1  UNL1       -0.1908
     20 C         142.9468  137.5437  160.3843 C.3     1  UNL1        0.1063
     21 C         142.7539  138.4254  159.1863 C.3     1  UNL1        0.1483
     22 O         143.3030  138.0106  157.8535 O.3     1  UNL1       -0.3786
     23 H         143.0923  138.6880  157.1919 H       1  UNL1        0.2108
     24 C         139.8134  138.5388  158.6025 C.3     1  UNL1        0.0306
     25 C         140.5417  139.7788  159.0291 C.ar    1  UNL1       -0.0238
     26 C         142.0119  139.7221  159.3210 C.ar    1  UNL1        0.0015
     27 C         142.7401  140.9621  159.7477 C.ar    1  UNL1       -0.0020
     28 C         141.9982  142.2588  159.8825 C.ar    1  UNL1        0.0060
     29 C         140.5280  142.3154  159.5906 C.ar    1  UNL1        0.0748
     30 C         139.7997  141.0754  159.1639 C.ar    1  UNL1        0.0233
     31 C         138.3600  141.4353  158.9457 C.3     1  UNL1        0.2352
     32 O         138.1984  142.8978  159.2376 O.3     1  UNL1       -0.4404
     33 C         139.5383  143.4417  159.6361 C.2     1  UNL1        0.3413
     34 O         139.8363  144.8624  160.0139 O.2     1  UNL1       -0.2449
@<TRIPOS>BOND
     1    24    25    1
     2    25    26   ar
     3    26    21    1
     4    21    22    1
     5    21    20    1
     6    20     1    1
     7     1     2    1
     8     2     3    1
     9     3     4    1
    10     4     5    1
    11     5     6    1
    12     4     7    1
    13     7     8    1
    14     8     9    2
    15     8    10   am
    16    10    12    1
    17    12    13   ar
    18    13    14   ar
    19    14    15   ar
    20    15    16   ar
    21    16    18    1
    22    18    19    3
    23    16    17   ar
    24    10    11    1
    25    26    27   ar
    26    27    28   ar
    27    28    29   ar
    28    29    30   ar
    29    30    31    1
    30    31    32    1
    31    32    33    1
    32    33    34    2
    33    30    25   ar
    34     6     1    1
    35    17    12   ar
    36    33    29    1
    37    11     4    1
    38    22    23    1
@<TRIPOS>MOLECULE
*****
 34 38 0 0 0
SMALL
GASTEIGER

@<TRIPOS>ATOM
      1 N         142.8662  139.0987  164.3011 N.3     1  UNL1       -0.2704
      2 C         142.0764  138.0549  163.5686 C.3     1  UNL1        0.0722
      3 C         142.1608  137.9623  162.0738 C.3     1  UNL1        0.0195
      4 C         143.0351  138.9134  161.3116 C.3     1  UNL1        0.0300
      5 C         143.8248  139.9573  162.0442 C.3     1  UNL1        0.0195
      6 C         143.7404  140.0499  163.5389 C.3     1  UNL1        0.0722
      7 C         143.8620  139.7908  160.4192 C.3     1  UNL1        0.0873
      8 C         143.6454  139.3468  159.0028 C.2     1  UNL1        0.2294
      9 O         144.2784  139.9488  157.7835 O.2     1  UNL1       -0.2745
     10 N         142.6846  138.1949  159.0199 N.am    1  UNL1       -0.2572
     11 C         142.3074  137.9271  160.4468 C.3     1  UNL1        0.0987
     12 C         142.1883  137.4429  157.8208 C.ar    1  UNL1        0.0737
     13 C         143.0434  136.3818  157.1941 C.ar    1  UNL1        0.1137
     14 N         142.5470  135.6298  155.9949 N.ar    1  UNL1       -0.2403
     15 C         141.1955  135.9389  155.4224 C.ar    1  UNL1        0.1092
     16 C         140.3402  137.0001  156.0491 C.ar    1  UNL1        0.0888
     17 C         140.8367  137.7520  157.2483 C.ar    1  UNL1        0.0283
     18 C         138.9887  137.3092  155.4766 C.1     1  UNL1        0.1020
     19 N         137.6372  137.6183  154.9040 N.1     1  UNL1       -0.1908
     20 C         142.7817  139.1914  165.7959 C.3     1  UNL1        0.1063
     21 C         141.6828  139.9858  166.4372 C.3     1  UNL1        0.1483
     22 O         141.4303  139.8631  167.9107 O.3     1  UNL1       -0.3786
     23 H         140.6911  140.4392  168.1611 H       1  UNL1        0.2108
     24 C         139.1363  138.9780  165.2126 C.3     1  UNL1        0.0306
     25 C         139.5632  140.3991  164.9927 C.ar    1  UNL1       -0.0238
     26 C         140.8364  140.9030  165.6050 C.ar    1  UNL1        0.0015
     27 C         141.2633  142.3240  165.3851 C.ar    1  UNL1       -0.0020
     28 C         140.4170  143.2412  164.5530 C.ar    1  UNL1        0.0060
     29 C         139.1437  142.7373  163.9407 C.ar    1  UNL1        0.0748
     30 C         138.7168  141.3162  164.1606 C.ar    1  UNL1        0.0233
     31 C         137.4210  141.1040  163.4354 C.3     1  UNL1        0.2352
     32 O         137.0471  142.3939  162.7673 O.3     1  UNL1       -0.4404
     33 C         138.1117  143.4033  163.0796 C.2     1  UNL1        0.3413
     34 O         138.1396  144.8285  162.6128 O.2     1  UNL1       -0.2449
@<TRIPOS>BOND
     1    24    25    1
     2    25    26   ar
     3    26    21    1
     4    21    22    1
     5    21    20    1
     6    20     1    1
     7     1     2    1
     8     2     3    1
     9     3     4    1
    10     4     5    1
    11     5     6    1
    12     4     7    1
    13     7     8    1
    14     8     9    2
    15     8    10   am
    16    10    12    1
    17    12    13   ar
    18    13    14   ar
    19    14    15   ar
    20    15    16   ar
    21    16    18    1
    22    18    19    3
    23    16    17   ar
    24    10    11    1
    25    26    27   ar
    26    27    28   ar
    27    28    29   ar
    28    29    30   ar
    29    30    31    1
    30    31    32    1
    31    32    33    1
    32    33    34    2
    33    30    25   ar
    34     6     1    1
    35    17    12   ar
    36    33    29    1
    37    11     4    1
    38    22    23    1
@<TRIPOS>MOLECULE
*****
 34 38 0 0 0
SMALL
GASTEIGER

@<TRIPOS>ATOM
      1 N         138.4577  139.2212  164.5547 N.3     1  UNL1       -0.2704
      2 C         137.9569  140.4718  163.8950 C.3     1  UNL1        0.0722
      3 C         138.0335  140.6153  162.4039 C.3     1  UNL1        0.0195
      4 C         138.6107  139.5083  161.5725 C.3     1  UNL1        0.0300
      5 C         139.1114  138.2577  162.2322 C.3     1  UNL1        0.0195
      6 C         139.0349  138.1141  163.7233 C.3     1  UNL1        0.0722
      7 C         139.1592  138.4914  160.6158 C.3     1  UNL1        0.0873
      8 C         139.0397  139.0486  159.2282 C.2     1  UNL1        0.2294
      9 O         139.4674  138.3647  157.9636 O.2     1  UNL1       -0.2745
     10 N         138.4173  140.4099  159.3273 N.am    1  UNL1       -0.2572
     11 C         138.1522  140.6939  160.7761 C.3     1  UNL1        0.0987
     12 C         138.1134  141.3261  158.1793 C.ar    1  UNL1        0.0737
     13 C         138.9370  142.5617  157.9675 C.ar    1  UNL1        0.1137
     14 N         138.6331  143.4779  156.8194 N.ar    1  UNL1       -0.2403
     15 C         137.5056  143.1586  155.8831 C.ar    1  UNL1        0.1092
     16 C         136.6819  141.9229  156.0949 C.ar    1  UNL1        0.0888
     17 C         136.9859  141.0067  157.2430 C.ar    1  UNL1        0.0283
     18 C         135.5544  141.6035  155.1586 C.1     1  UNL1        0.1020
     19 N         134.4268  141.2842  154.2223 N.1     1  UNL1       -0.1908
     20 C         138.3811  139.0776  166.0459 C.3     1  UNL1        0.1063
     21 C         139.4862  139.6113  166.9085 C.3     1  UNL1        0.1483
     22 O         139.2981  139.7086  168.3935 O.3     1  UNL1       -0.3786
     23 H         140.1017  140.0711  168.7981 H       1  UNL1        0.2108
     24 C         139.9274  142.5016  166.2365 C.3     1  UNL1        0.0306
     25 C         141.0000  141.4928  165.9501 C.ar    1  UNL1       -0.0238
     26 C         140.7793  140.0477  166.2861 C.ar    1  UNL1        0.0015
     27 C         141.8519  139.0389  165.9997 C.ar    1  UNL1       -0.0020
     28 C         143.1450  139.4752  165.3773 C.ar    1  UNL1        0.0060
     29 C         143.3656  140.9203  165.0413 C.ar    1  UNL1        0.0748
     30 C         142.2931  141.9291  165.3277 C.ar    1  UNL1        0.0233
     31 C         142.7929  143.2739  164.8899 C.3     1  UNL1        0.2352
     32 O         144.1743  143.0963  164.3330 O.3     1  UNL1       -0.4404
     33 C         144.5282  141.6417  164.4265 C.2     1  UNL1        0.3413
     34 O         145.8183  141.0179  163.9832 O.2     1  UNL1       -0.2449
@<TRIPOS>BOND
     1    24    25    1
     2    25    26   ar
     3    26    21    1
     4    21    22    1
     5    21    20    1
     6    20     1    1
     7     1     2    1
     8     2     3    1
     9     3     4    1
    10     4     5    1
    11     5     6    1
    12     4     7    1
    13     7     8    1
    14     8     9    2
    15     8    10   am
    16    10    12    1
    17    12    13   ar
    18    13    14   ar
    19    14    15   ar
    20    15    16   ar
    21    16    18    1
    22    18    19    3
    23    16    17   ar
    24    10    11    1
    25    26    27   ar
    26    27    28   ar
    27    28    29   ar
    28    29    30   ar
    29    30    31    1
    30    31    32    1
    31    32    33    1
    32    33    34    2
    33    30    25   ar
    34     6     1    1
    35    17    12   ar
    36    33    29    1
    37    11     4    1
    38    22    23    1
@<TRIPOS>MOLECULE
*****
 34 38 0 0 0
SMALL
GASTEIGER

@<TRIPOS>ATOM
      1 N         143.3687  139.8086  163.2959 N.3     1  UNL1       -0.2704
      2 C         142.8695  138.4625  162.8616 C.3     1  UNL1        0.0722
      3 C         142.7711  138.1345  161.4013 C.3     1  UNL1        0.0195
      4 C         143.1719  139.1526  160.3752 C.3     1  UNL1        0.0300
      5 C         143.6712  140.4987  160.8095 C.3     1  UNL1        0.0195
      6 C         143.7696  140.8267  162.2699 C.3     1  UNL1        0.0722
      7 C         143.5345  140.0641  159.2404 C.3     1  UNL1        0.0873
      8 C         143.2803  139.3304  157.9570 C.2     1  UNL1        0.2294
      9 O         143.5062  139.8673  156.5748 O.2     1  UNL1       -0.2745
     10 N         142.7606  137.9653  158.2987 N.am    1  UNL1       -0.2572
     11 C         142.6936  137.8555  159.7931 C.3     1  UNL1        0.0987
     12 C         142.3755  136.8977  157.3181 C.ar    1  UNL1        0.0737
     13 C         141.1451  137.0612  156.4760 C.ar    1  UNL1        0.1137
     14 N         140.7600  135.9935  155.4953 N.ar    1  UNL1       -0.2403
     15 C         141.6054  134.7622  155.3567 C.ar    1  UNL1        0.1092
     16 C         142.8360  134.5986  156.1988 C.ar    1  UNL1        0.0888
     17 C         143.2210  135.6664  157.1794 C.ar    1  UNL1        0.0283
     18 C         143.6814  133.3673  156.0602 C.1     1  UNL1        0.1020
     19 N         144.5268  132.1361  155.9216 N.1     1  UNL1       -0.1908
     20 C         143.4672  140.1367  164.7564 C.3     1  UNL1        0.1063
     21 C         142.6544  141.2597  165.3292 C.3     1  UNL1        0.1483
     22 O         142.7675  142.6387  164.7500 O.3     1  UNL1       -0.3786
     23 H         142.1799  143.2412  165.2324 H       1  UNL1        0.2108
     24 C         143.3130  142.3365  168.0508 C.3     1  UNL1        0.0306
     25 C         142.0578  141.5421  167.8421 C.ar    1  UNL1       -0.0238
     26 C         141.7286  141.0037  166.4813 C.ar    1  UNL1        0.0015
     27 C         140.4734  140.2093  166.2726 C.ar    1  UNL1       -0.0020
     28 C         139.5476  139.9533  167.4247 C.ar    1  UNL1        0.0060
     29 C         139.8769  140.4917  168.7854 C.ar    1  UNL1        0.0748
     30 C         141.1320  141.2861  168.9941 C.ar    1  UNL1        0.0233
     31 C         141.1922  141.6867  170.4384 C.3     1  UNL1        0.2352
     32 O         139.9744  141.1399  171.1223 O.3     1  UNL1       -0.4404
     33 C         139.1614  140.4014  170.1007 C.2     1  UNL1        0.3413
     34 O         137.8613  139.6962  170.3505 O.2     1  UNL1       -0.2449
@<TRIPOS>BOND
     1    24    25    1
     2    25    26   ar
     3    26    21    1
     4    21    22    1
     5    21    20    1
     6    20     1    1
     7     1     2    1
     8     2     3    1
     9     3     4    1
    10     4     5    1
    11     5     6    1
    12     4     7    1
    13     7     8    1
    14     8     9    2
    15     8    10   am
    16    10    12    1
    17    12    13   ar
    18    13    14   ar
    19    14    15   ar
    20    15    16   ar
    21    16    18    1
    22    18    19    3
    23    16    17   ar
    24    10    11    1
    25    26    27   ar
    26    27    28   ar
    27    28    29   ar
    28    29    30   ar
    29    30    31    1
    30    31    32    1
    31    32    33    1
    32    33    34    2
    33    30    25   ar
    34     6     1    1
    35    17    12   ar
    36    33    29    1
    37    11     4    1
    38    22    23    1
@<TRIPOS>MOLECULE
*****
 34 38 0 0 0
SMALL
GASTEIGER

@<TRIPOS>ATOM
      1 N         142.4310  137.8748  161.7725 N.3     1  UNL1       -0.2704
      2 C         143.3168  138.5248  162.7937 C.3     1  UNL1        0.0722
      3 C         142.7465  138.9664  164.1088 C.3     1  UNL1        0.0195
      4 C         141.2904  138.7581  164.4028 C.3     1  UNL1        0.0300
      5 C         140.4047  138.1080  163.3816 C.3     1  UNL1        0.0195
      6 C         140.9750  137.6664  162.0665 C.3     1  UNL1        0.0722
      7 C         139.8613  138.6167  164.8361 C.3     1  UNL1        0.0873
      8 C         139.7367  139.1900  166.2168 C.2     1  UNL1        0.2294
      9 O         138.4806  139.2560  167.0340 O.2     1  UNL1       -0.2745
     10 N         141.0889  139.6856  166.6366 N.am    1  UNL1       -0.2572
     11 C         142.0491  139.4187  165.5156 C.3     1  UNL1        0.0987
     12 C         141.4222  140.3342  167.9473 C.ar    1  UNL1        0.0737
     13 C         142.3602  139.6571  168.9021 C.ar    1  UNL1        0.1137
     14 N         142.6936  140.3057  170.2129 N.ar    1  UNL1       -0.2403
     15 C         142.0889  141.6315  170.5689 C.ar    1  UNL1        0.1092
     16 C         141.1508  142.3086  169.6141 C.ar    1  UNL1        0.0888
     17 C         140.8175  141.6599  168.3034 C.ar    1  UNL1        0.0283
     18 C         140.5461  143.6344  169.9702 C.1     1  UNL1        0.1020
     19 N         139.9415  144.9601  170.3262 N.1     1  UNL1       -0.1908
     20 C         143.0013  137.4331  160.4573 C.3     1  UNL1        0.1063
     21 C         142.9412  138.3465  159.2690 C.3     1  UNL1        0.1483
     22 O         144.0063  139.3828  159.0649 O.3     1  UNL1       -0.3786
     23 H         143.8186  139.8844  158.2562 H       1  UNL1        0.2108
     24 C         143.1778  136.4615  156.9472 C.3     1  UNL1        0.0306
     25 C         141.9342  137.2813  157.1240 C.ar    1  UNL1       -0.0238
     26 C         141.8158  138.2238  158.2848 C.ar    1  UNL1        0.0015
     27 C         140.5721  139.0436  158.4616 C.ar    1  UNL1       -0.0020
     28 C         139.4468  138.9209  157.4775 C.ar    1  UNL1        0.0060
     29 C         139.5652  137.9784  156.3166 C.ar    1  UNL1        0.0748
     30 C         140.8088  137.1586  156.1398 C.ar    1  UNL1        0.0233
     31 C         140.6402  136.3204  154.9074 C.3     1  UNL1        0.2352
     32 O         139.2923  136.6221  154.3224 O.3     1  UNL1       -0.4404
     33 C         138.6279  137.6468  155.1934 C.2     1  UNL1        0.3413
     34 O         137.2655  138.2364  154.9788 O.2     1  UNL1       -0.2449
@<TRIPOS>BOND
     1    24    25    1
     2    25    26   ar
     3    26    21    1
     4    21    22    1
     5    21    20    1
     6    20     1    1
     7     1     2    1
     8     2     3    1
     9     3     4    1
    10     4     5    1
    11     5     6    1
    12     4     7    1
    13     7     8    1
    14     8     9    2
    15     8    10   am
    16    10    12    1
    17    12    13   ar
    18    13    14   ar
    19    14    15   ar
    20    15    16   ar
    21    16    18    1
    22    18    19    3
    23    16    17   ar
    24    10    11    1
    25    26    27   ar
    26    27    28   ar
    27    28    29   ar
    28    29    30   ar
    29    30    31    1
    30    31    32    1
    31    32    33    1
    32    33    34    2
    33    30    25   ar
    34     6     1    1
    35    17    12   ar
    36    33    29    1
    37    11     4    1
    38    22    23    1
@<TRIPOS>MOLECULE
*****
 34 38 0 0 0
SMALL
GASTEIGER

@<TRIPOS>ATOM
      1 N         143.9540  142.3348  163.0975 N.3     1  UNL1       -0.2704
      2 C         143.7738  142.0402  161.6378 C.3     1  UNL1        0.0722
      3 C         142.7844  142.8273  160.8305 C.3     1  UNL1        0.0195
      4 C         141.9754  143.9088  161.4829 C.3     1  UNL1        0.0300
      5 C         142.1556  144.2034  162.9425 C.3     1  UNL1        0.0195
      6 C         143.1450  143.4164  163.7498 C.3     1  UNL1        0.0722
      7 C         141.1001  145.0142  161.9949 C.3     1  UNL1        0.0873
      8 C         140.2713  145.5172  160.8502 C.2     1  UNL1        0.2294
      9 O         139.2575  146.6209  160.9138 O.2     1  UNL1       -0.2745
     10 N         140.6344  144.7227  159.6307 N.am    1  UNL1       -0.2572
     11 C         141.6875  143.7287  160.0218 C.3     1  UNL1        0.0987
     12 C         140.0474  144.8924  158.2609 C.ar    1  UNL1        0.0737
     13 C         139.5387  143.6979  157.5097 C.ar    1  UNL1        0.1137
     14 N         138.9517  143.8676  156.1398 N.ar    1  UNL1       -0.2403
     15 C         138.8734  145.2318  155.5211 C.ar    1  UNL1        0.1092
     16 C         139.3821  146.4264  156.2723 C.ar    1  UNL1        0.0888
     17 C         139.9691  146.2566  157.6422 C.ar    1  UNL1        0.0283
     18 C         139.3037  147.7906  155.6537 C.1     1  UNL1        0.1020
     19 N         139.2254  149.1548  155.0350 N.1     1  UNL1       -0.1908
     20 C         144.9434  141.5478  163.9049 C.3     1  UNL1        0.1063
     21 C         144.6244  140.1418  164.3187 C.3     1  UNL1        0.1483
     22 O         145.7252  139.1322  164.4559 O.3     1  UNL1       -0.3786
     23 H         145.3504  138.2801  164.7286 H       1  UNL1        0.2108
     24 C         143.1483  138.3965  162.3758 C.3     1  UNL1        0.0306
     25 C         142.4664  138.8727  163.6240 C.ar    1  UNL1       -0.0238
     26 C         143.2044  139.7454  164.5955 C.ar    1  UNL1        0.0015
     27 C         142.5224  140.2216  165.8438 C.ar    1  UNL1       -0.0020
     28 C         141.1025  139.8252  166.1206 C.ar    1  UNL1        0.0060
     29 C         140.3645  138.9526  165.1491 C.ar    1  UNL1        0.0748
     30 C         141.0465  138.4763  163.9008 C.ar    1  UNL1        0.0233
     31 C         140.0722  137.6323  163.1336 C.3     1  UNL1        0.2352
     32 O         138.7882  137.5869  163.9077 O.3     1  UNL1       -0.4404
     33 C         138.9689  138.4029  165.1533 C.2     1  UNL1        0.3413
     34 O         137.9353  138.6294  166.2166 O.2     1  UNL1       -0.2449
@<TRIPOS>BOND
     1    24    25    1
     2    25    26   ar
     3    26    21    1
     4    21    22    1
     5    21    20    1
     6    20     1    1
     7     1     2    1
     8     2     3    1
     9     3     4    1
    10     4     5    1
    11     5     6    1
    12     4     7    1
    13     7     8    1
    14     8     9    2
    15     8    10   am
    16    10    12    1
    17    12    13   ar
    18    13    14   ar
    19    14    15   ar
    20    15    16   ar
    21    16    18    1
    22    18    19    3
    23    16    17   ar
    24    10    11    1
    25    26    27   ar
    26    27    28   ar
    27    28    29   ar
    28    29    30   ar
    29    30    31    1
    30    31    32    1
    31    32    33    1
    32    33    34    2
    33    30    25   ar
    34     6     1    1
    35    17    12   ar
    36    33    29    1
    37    11     4    1
    38    22    23    1
