@<TRIPOS>MOLECULE
*****
 27 30 0 0 0
SMALL
GASTEIGER

@<TRIPOS>ATOM
      1 C         139.2333  139.3212  166.3591 C.2     1  UNL1        0.2459
      2 O         137.7763  139.2271  166.0150 O.2     1  UNL1       -0.2701
      3 N         140.2572  138.6835  165.4676 N.am    1  UNL1       -0.3005
      4 H         141.2134  138.7453  165.6935 H       1  UNL1        0.1497
      5 N         143.4023  143.8607  171.2208 N.pl3   1  UNL1       -0.3375
      6 C         142.4322  142.9573  170.5188 C.ar    1  UNL1        0.1567
      7 N         141.2031  142.3445  171.1219 N.ar    1  UNL1       -0.2245
      8 C         140.5321  141.5166  170.0663 C.ar    1  UNL1        0.0892
      9 C         139.2848  140.6837  170.0862 C.ar    1  UNL1        0.0198
     10 C         138.8519  139.9519  168.8505 C.ar    1  UNL1        0.0061
     11 C         139.6663  140.0530  167.5949 C.ar    1  UNL1        0.0539
     12 C         140.9136  140.8859  167.5750 C.ar    1  UNL1        0.0126
     13 C         141.3465  141.6177  168.8107 C.ar    1  UNL1        0.0498
     14 S         142.5208  142.5081  169.0904 S.2     1  UNL1       -0.0520
     15 H         143.2577  144.0997  172.1648 H       1  UNL1        0.1442
     16 H         144.1836  144.2146  170.7374 H       1  UNL1        0.1442
     17 C         139.8242  137.9517  164.2318 C.3     1  UNL1        0.0944
     18 C         139.7878  138.6641  162.9123 C.3     1  UNL1        0.0492
     19 C         139.0087  139.9378  162.7690 C.2     1  UNL1       -0.0002
     20 C         137.6429  140.0726  162.1636 C.2     1  UNL1        0.0942
     21 N         137.2487  141.5185  162.2263 N.2     1  UNL1       -0.2482
     22 C         138.3710  142.2773  162.8704 C.2     1  UNL1        0.0631
     23 C         138.5429  143.7318  163.1949 C.3     1  UNL1        0.0717
     24 C         139.8025  144.2092  163.8547 C.2     1  UNL1       -0.0198
     25 C         140.8903  143.2322  164.1901 C.2     1  UNL1       -0.0042
     26 C         140.7183  141.7779  163.8657 C.2     1  UNL1        0.0006
     27 C         139.4587  141.3004  163.2058 C.2     1  UNL1        0.0115
@<TRIPOS>BOND
     1     5     6    1
     2     6     7   ar
     3     7     8   ar
     4     8     9   ar
     5     9    10   ar
     6    10    11   ar
     7    11     1    1
     8     1     2    2
     9     1     3   am
    10     3    17    1
    11    17    18    1
    12    18    19    1
    13    19    20    2
    14    20    21    1
    15    21    22    2
    16    22    23    1
    17    23    24    1
    18    24    25    2
    19    25    26    1
    20    26    27    2
    21    11    12   ar
    22    12    13   ar
    23    13    14   ar
    24    14     6   ar
    25    13     8   ar
    26    27    19    1
    27    27    22    1
    28     5    15    1
    29     5    16    1
    30     3     4    1
@<TRIPOS>MOLECULE
*****
 27 30 0 0 0
SMALL
GASTEIGER

@<TRIPOS>ATOM
      1 C         140.7086  139.0955  163.4659 C.2     1  UNL1        0.2459
      2 O         141.2067  140.0193  162.3942 O.2     1  UNL1       -0.2701
      3 N         139.5881  138.1423  163.1731 N.am    1  UNL1       -0.3005
      4 H         139.2611  137.5360  163.8765 H       1  UNL1        0.1497
      5 N         141.6919  140.3617  171.1505 N.pl3   1  UNL1       -0.3375
      6 C         141.7687  140.0072  169.6950 C.ar    1  UNL1        0.1567
      7 N         142.9285  139.3496  169.0077 N.ar    1  UNL1       -0.2245
      8 C         142.5758  139.1839  167.5592 C.ar    1  UNL1        0.0892
      9 C         143.3313  138.5993  166.4028 C.ar    1  UNL1        0.0198
     10 C         142.7089  138.5698  165.0384 C.ar    1  UNL1        0.0061
     11 C         141.3310  139.1250  164.8304 C.ar    1  UNL1        0.0539
     12 C         140.5755  139.7096  165.9869 C.ar    1  UNL1        0.0126
     13 C         141.1980  139.7391  167.3513 C.ar    1  UNL1        0.0498
     14 S         140.6991  140.2479  168.6713 S.2     1  UNL1       -0.0520
     15 H         142.4499  140.1625  171.7463 H       1  UNL1        0.1442
     16 H         140.8835  140.7936  171.5099 H       1  UNL1        0.1442
     17 C         138.9656  138.1128  161.8086 C.3     1  UNL1        0.0944
     18 C         137.7803  138.9807  161.5060 C.3     1  UNL1        0.0492
     19 C         137.9620  140.4567  161.3100 C.2     1  UNL1       -0.0002
     20 C         138.1876  141.1509  159.9996 C.2     1  UNL1        0.0942
     21 N         138.3151  142.6209  160.2697 N.2     1  UNL1       -0.2482
     22 C         138.1684  142.8351  161.7471 C.2     1  UNL1        0.0631
     23 C         138.2052  144.0754  162.5901 C.3     1  UNL1        0.0717
     24 C         138.0239  143.9781  164.0758 C.2     1  UNL1       -0.0198
     25 C         137.8057  142.6405  164.7188 C.2     1  UNL1       -0.0042
     26 C         137.7689  141.4003  163.8759 C.2     1  UNL1        0.0006
     27 C         137.9502  141.4976  162.3900 C.2     1  UNL1        0.0115
@<TRIPOS>BOND
     1     5     6    1
     2     6     7   ar
     3     7     8   ar
     4     8     9   ar
     5     9    10   ar
     6    10    11   ar
     7    11     1    1
     8     1     2    2
     9     1     3   am
    10     3    17    1
    11    17    18    1
    12    18    19    1
    13    19    20    2
    14    20    21    1
    15    21    22    2
    16    22    23    1
    17    23    24    1
    18    24    25    2
    19    25    26    1
    20    26    27    2
    21    11    12   ar
    22    12    13   ar
    23    13    14   ar
    24    14     6   ar
    25    13     8   ar
    26    27    19    1
    27    27    22    1
    28     5    15    1
    29     5    16    1
    30     3     4    1
@<TRIPOS>MOLECULE
*****
 27 30 0 0 0
SMALL
GASTEIGER

@<TRIPOS>ATOM
      1 C         142.7725  141.3542  163.7208 C.2     1  UNL1        0.2459
      2 O         141.8917  140.7981  162.6415 O.2     1  UNL1       -0.2701
      3 N         143.6225  142.5598  163.4483 N.am    1  UNL1       -0.3005
      4 H         144.2006  142.9248  164.1566 H       1  UNL1        0.1497
      5 N         142.4950  140.4052  171.5083 N.pl3   1  UNL1       -0.3375
      6 C         142.5946  140.3025  170.0152 C.ar    1  UNL1        0.1567
      7 N         142.8429  139.0473  169.2324 N.ar    1  UNL1       -0.2245
      8 C         142.8653  139.4059  167.7761 C.ar    1  UNL1        0.0892
      9 C         143.0688  138.5784  166.5416 C.ar    1  UNL1        0.0198
     10 C         143.0379  139.2279  165.1899 C.ar    1  UNL1        0.0061
     11 C         142.8034  140.7048  165.0726 C.ar    1  UNL1        0.0539
     12 C         142.5999  141.5322  166.3070 C.ar    1  UNL1        0.0126
     13 C         142.6308  140.8828  167.6587 C.ar    1  UNL1        0.0498
     14 S         142.4635  141.4369  169.0426 S.2     1  UNL1       -0.0520
     15 H         142.5955  139.5995  172.0650 H       1  UNL1        0.1442
     16 H         142.3290  141.2784  171.9316 H       1  UNL1        0.1442
     17 C         143.5915  143.2092  162.0965 C.3     1  UNL1        0.0944
     18 C         142.6732  144.3675  161.8417 C.3     1  UNL1        0.0492
     19 C         141.1939  144.1428  161.7367 C.2     1  UNL1       -0.0002
     20 C         140.4353  143.8394  160.4787 C.2     1  UNL1        0.0942
     21 N         138.9860  143.6911  160.8357 N.2     1  UNL1       -0.2482
     22 C         138.8489  143.9028  162.3144 C.2     1  UNL1        0.0631
     23 C         137.6577  143.8775  163.2258 C.3     1  UNL1        0.0717
     24 C         137.8311  144.1313  164.6939 C.2     1  UNL1       -0.0198
     25 C         139.1957  144.4105  165.2508 C.2     1  UNL1       -0.0042
     26 C         140.3868  144.4358  164.3394 C.2     1  UNL1        0.0006
     27 C         140.2135  144.1820  162.8712 C.2     1  UNL1        0.0115
@<TRIPOS>BOND
     1     5     6    1
     2     6     7   ar
     3     7     8   ar
     4     8     9   ar
     5     9    10   ar
     6    10    11   ar
     7    11     1    1
     8     1     2    2
     9     1     3   am
    10     3    17    1
    11    17    18    1
    12    18    19    1
    13    19    20    2
    14    20    21    1
    15    21    22    2
    16    22    23    1
    17    23    24    1
    18    24    25    2
    19    25    26    1
    20    26    27    2
    21    11    12   ar
    22    12    13   ar
    23    13    14   ar
    24    14     6   ar
    25    13     8   ar
    26    27    19    1
    27    27    22    1
    28     5    15    1
    29     5    16    1
    30     3     4    1
@<TRIPOS>MOLECULE
*****
 27 30 0 0 0
SMALL
GASTEIGER

@<TRIPOS>ATOM
      1 C         138.9947  141.5060  165.1289 C.2     1  UNL1        0.2459
      2 O         139.8577  141.5424  166.3552 O.2     1  UNL1       -0.2701
      3 N         138.0233  140.3807  164.9285 N.am    1  UNL1       -0.3005
      4 H         137.4569  140.3569  164.1236 H       1  UNL1        0.1497
      5 N         141.7190  145.8834  159.2095 N.pl3   1  UNL1       -0.3375
      6 C         140.9825  145.2374  160.3454 C.ar    1  UNL1        0.1567
      7 N         139.6929  145.7144  160.9448 N.ar    1  UNL1       -0.2245
      8 C         139.3197  144.7728  162.0512 C.ar    1  UNL1        0.0892
      9 C         138.1524  144.7428  162.9927 C.ar    1  UNL1        0.0198
     10 C         138.0440  143.6539  164.0186 C.ar    1  UNL1        0.0061
     11 C         139.1030  142.5950  164.1030 C.ar    1  UNL1        0.0539
     12 C         140.2704  142.6249  163.1615 C.ar    1  UNL1        0.0126
     13 C         140.3787  143.7138  162.1356 C.ar    1  UNL1        0.0498
     14 S         141.4063  144.0010  161.0814 S.2     1  UNL1       -0.0520
     15 H         141.3588  146.6974  158.7888 H       1  UNL1        0.1442
     16 H         142.5627  145.4935  158.8847 H       1  UNL1        0.1442
     17 C         137.9150  139.2918  165.9545 C.3     1  UNL1        0.0944
     18 C         138.7440  138.0490  165.8195 C.3     1  UNL1        0.0492
     19 C         139.7207  137.9182  164.6887 C.2     1  UNL1       -0.0002
     20 C         139.4328  137.3319  163.3383 C.2     1  UNL1        0.0942
     21 N         140.6910  137.4021  162.5247 N.2     1  UNL1       -0.2482
     22 C         141.7565  138.0317  163.3722 C.2     1  UNL1        0.0631
     23 C         143.1955  138.3558  163.0989 C.3     1  UNL1        0.0717
     24 C         144.0346  138.9987  164.1629 C.2     1  UNL1       -0.0198
     25 C         143.4350  139.3178  165.5004 C.2     1  UNL1       -0.0042
     26 C         141.9961  138.9937  165.7737 C.2     1  UNL1        0.0006
     27 C         141.1569  138.3506  164.7096 C.2     1  UNL1        0.0115
@<TRIPOS>BOND
     1     5     6    1
     2     6     7   ar
     3     7     8   ar
     4     8     9   ar
     5     9    10   ar
     6    10    11   ar
     7    11     1    1
     8     1     2    2
     9     1     3   am
    10     3    17    1
    11    17    18    1
    12    18    19    1
    13    19    20    2
    14    20    21    1
    15    21    22    2
    16    22    23    1
    17    23    24    1
    18    24    25    2
    19    25    26    1
    20    26    27    2
    21    11    12   ar
    22    12    13   ar
    23    13    14   ar
    24    14     6   ar
    25    13     8   ar
    26    27    19    1
    27    27    22    1
    28     5    15    1
    29     5    16    1
    30     3     4    1
@<TRIPOS>MOLECULE
*****
 27 30 0 0 0
SMALL
GASTEIGER

@<TRIPOS>ATOM
      1 C         140.0781  142.7560  165.3666 C.2     1  UNL1        0.2459
      2 O         140.9465  142.3869  164.2005 O.2     1  UNL1       -0.2701
      3 N         138.7283  143.3669  165.1328 N.am    1  UNL1       -0.3005
      4 H         138.1583  143.6092  165.8981 H       1  UNL1        0.1497
      5 N         143.7536  139.5074  171.4953 N.pl3   1  UNL1       -0.3375
      6 C         142.9569  140.3195  170.5176 C.ar    1  UNL1        0.1567
      7 N         142.1514  141.5436  170.8380 N.ar    1  UNL1       -0.2245
      8 C         141.5226  142.0308  169.5663 C.ar    1  UNL1        0.0892
      9 C         140.6242  143.1956  169.2728 C.ar    1  UNL1        0.0198
     10 C         140.1428  143.4373  167.8729 C.ar    1  UNL1        0.0061
     11 C         140.5596  142.5142  166.7665 C.ar    1  UNL1        0.0539
     12 C         141.4580  141.3494  167.0600 C.ar    1  UNL1        0.0126
     13 C         141.9394  141.1077  168.4599 C.ar    1  UNL1        0.0498
     14 S         142.8259  140.0501  169.0478 S.2     1  UNL1       -0.0520
     15 H         143.7781  139.7656  172.4450 H       1  UNL1        0.1442
     16 H         144.2519  138.7162  171.1872 H       1  UNL1        0.1442
     17 C         138.2468  143.6087  163.7328 C.3     1  UNL1        0.0944
     18 C         137.3370  142.6167  163.0708 C.3     1  UNL1        0.0492
     19 C         137.8528  141.2584  162.6981 C.2     1  UNL1       -0.0002
     20 C         138.1599  140.7825  161.3091 C.2     1  UNL1        0.0942
     21 N         138.6489  139.3675  161.4015 N.2     1  UNL1       -0.2482
     22 C         138.6440  138.9689  162.8476 C.2     1  UNL1        0.0631
     23 C         139.0240  137.6926  163.5383 C.3     1  UNL1        0.0717
     24 C         138.9120  137.5852  165.0302 C.2     1  UNL1       -0.0198
     25 C         138.4200  138.7539  165.8315 C.2     1  UNL1       -0.0042
     26 C         138.0400  140.0300  165.1409 C.2     1  UNL1        0.0006
     27 C         138.1520  140.1376  163.6489 C.2     1  UNL1        0.0115
@<TRIPOS>BOND
     1     5     6    1
     2     6     7   ar
     3     7     8   ar
     4     8     9   ar
     5     9    10   ar
     6    10    11   ar
     7    11     1    1
     8     1     2    2
     9     1     3   am
    10     3    17    1
    11    17    18    1
    12    18    19    1
    13    19    20    2
    14    20    21    1
    15    21    22    2
    16    22    23    1
    17    23    24    1
    18    24    25    2
    19    25    26    1
    20    26    27    2
    21    11    12   ar
    22    12    13   ar
    23    13    14   ar
    24    14     6   ar
    25    13     8   ar
    26    27    19    1
    27    27    22    1
    28     5    15    1
    29     5    16    1
    30     3     4    1
@<TRIPOS>MOLECULE
*****
 27 30 0 0 0
SMALL
GASTEIGER

@<TRIPOS>ATOM
      1 C         140.3403  139.0774  165.8624 C.2     1  UNL1        0.2459
      2 O         139.0381  139.0848  165.1180 O.2     1  UNL1       -0.2701
      3 N         141.4802  138.2353  165.3712 N.am    1  UNL1       -0.3005
      4 H         142.3349  138.2305  165.8597 H       1  UNL1        0.1497
      5 N         143.4738  143.9059  171.2001 N.pl3   1  UNL1       -0.3375
      6 C         142.6488  142.9782  170.3582 C.ar    1  UNL1        0.1567
      7 N         141.2705  142.4834  170.6831 N.ar    1  UNL1       -0.2245
      8 C         140.8272  141.5817  169.5694 C.ar    1  UNL1        0.0892
      9 C         139.5606  140.8096  169.3469 C.ar    1  UNL1        0.0198
     10 C         139.3983  139.9748  168.1113 C.ar    1  UNL1        0.0061
     11 C         140.5026  139.9122  167.0981 C.ar    1  UNL1        0.0539
     12 C         141.7692  140.6844  167.3205 C.ar    1  UNL1        0.0126
     13 C         141.9315  141.5191  168.5562 C.ar    1  UNL1        0.0498
     14 S         143.0573  142.3822  169.0437 S.2     1  UNL1       -0.0520
     15 H         143.1168  144.2460  172.0522 H       1  UNL1        0.1442
     16 H         144.3722  144.1748  170.9004 H       1  UNL1        0.1442
     17 C         141.3179  137.4005  164.1355 C.3     1  UNL1        0.0944
     18 C         141.6749  137.9690  162.7941 C.3     1  UNL1        0.0492
     19 C         141.9355  139.4389  162.6477 C.2     1  UNL1       -0.0002
     20 C         141.0044  140.4426  162.0349 C.2     1  UNL1        0.0942
     21 N         141.6663  141.7872  162.0969 N.2     1  UNL1       -0.2482
     22 C         143.0066  141.6144  162.7482 C.2     1  UNL1        0.0631
     23 C         144.0970  142.5913  163.0752 C.3     1  UNL1        0.0717
     24 C         145.3537  142.1167  163.7425 C.2     1  UNL1       -0.0198
     25 C         145.5201  140.6653  164.0830 C.2     1  UNL1       -0.0042
     26 C         144.4296  139.6885  163.7560 C.2     1  UNL1        0.0006
     27 C         143.1729  140.1631  163.0886 C.2     1  UNL1        0.0115
@<TRIPOS>BOND
     1     5     6    1
     2     6     7   ar
     3     7     8   ar
     4     8     9   ar
     5     9    10   ar
     6    10    11   ar
     7    11     1    1
     8     1     2    2
     9     1     3   am
    10     3    17    1
    11    17    18    1
    12    18    19    1
    13    19    20    2
    14    20    21    1
    15    21    22    2
    16    22    23    1
    17    23    24    1
    18    24    25    2
    19    25    26    1
    20    26    27    2
    21    11    12   ar
    22    12    13   ar
    23    13    14   ar
    24    14     6   ar
    25    13     8   ar
    26    27    19    1
    27    27    22    1
    28     5    15    1
    29     5    16    1
    30     3     4    1
@<TRIPOS>MOLECULE
*****
 27 30 0 0 0
SMALL
GASTEIGER

@<TRIPOS>ATOM
      1 C         139.4899  142.5556  164.4358 C.2     1  UNL1        0.2459
      2 O         139.5695  141.8558  163.1114 O.2     1  UNL1       -0.2701
      3 N         139.1964  144.0256  164.4908 N.am    1  UNL1       -0.3005
      4 H         139.1441  144.4849  165.3600 H       1  UNL1        0.1497
      5 N         142.1519  140.5517  171.5436 N.pl3   1  UNL1       -0.3375
      6 C         141.4957  140.6879  170.2016 C.ar    1  UNL1        0.1567
      7 N         140.5366  139.7126  169.5861 N.ar    1  UNL1       -0.2245
      8 C         140.1315  140.2452  168.2436 C.ar    1  UNL1        0.0892
      9 C         139.2088  139.7108  167.1886 C.ar    1  UNL1        0.0198
     10 C         138.9950  140.4810  165.9194 C.ar    1  UNL1        0.0061
     11 C         139.7038  141.7855  165.7051 C.ar    1  UNL1        0.0539
     12 C         140.6265  142.3198  166.7601 C.ar    1  UNL1        0.0126
     13 C         140.8403  141.5496  168.0294 C.ar    1  UNL1        0.0498
     14 S         141.6834  141.8232  169.2395 S.2     1  UNL1       -0.0520
     15 H         141.9644  139.7656  172.1058 H       1  UNL1        0.1442
     16 H         142.7701  141.2485  171.8622 H       1  UNL1        0.1442
     17 C         138.9825  144.7957  163.2214 C.3     1  UNL1        0.0944
     18 C         140.1162  145.5651  162.6109 C.3     1  UNL1        0.0492
     19 C         141.2779  144.8347  162.0053 C.2     1  UNL1       -0.0002
     20 C         141.4988  144.5881  160.5423 C.2     1  UNL1        0.0942
     21 N         142.7802  143.8236  160.3892 N.2     1  UNL1       -0.2482
     22 C         143.3514  143.5977  161.7578 C.2     1  UNL1        0.0631
     23 C         144.5970  142.9036  162.2235 C.3     1  UNL1        0.0717
     24 C         144.9141  142.8344  163.6879 C.2     1  UNL1       -0.0198
     25 C         143.9856  143.4593  164.6867 C.2     1  UNL1       -0.0042
     26 C         142.7401  144.1533  164.2210 C.2     1  UNL1        0.0006
     27 C         142.4229  144.2225  162.7565 C.2     1  UNL1        0.0115
@<TRIPOS>BOND
     1     5     6    1
     2     6     7   ar
     3     7     8   ar
     4     8     9   ar
     5     9    10   ar
     6    10    11   ar
     7    11     1    1
     8     1     2    2
     9     1     3   am
    10     3    17    1
    11    17    18    1
    12    18    19    1
    13    19    20    2
    14    20    21    1
    15    21    22    2
    16    22    23    1
    17    23    24    1
    18    24    25    2
    19    25    26    1
    20    26    27    2
    21    11    12   ar
    22    12    13   ar
    23    13    14   ar
    24    14     6   ar
    25    13     8   ar
    26    27    19    1
    27    27    22    1
    28     5    15    1
    29     5    16    1
    30     3     4    1
@<TRIPOS>MOLECULE
*****
 27 30 0 0 0
SMALL
GASTEIGER

@<TRIPOS>ATOM
      1 C         139.3380  139.4949  165.5255 C.2     1  UNL1        0.2459
      2 O         137.9660  139.1745  166.0402 O.2     1  UNL1       -0.2701
      3 N         139.6396  139.3637  164.0620 N.am    1  UNL1       -0.3005
      4 H         140.5401  139.5740  163.7242 H       1  UNL1        0.1497
      5 N         143.1338  143.6408  171.0051 N.pl3   1  UNL1       -0.3375
      6 C         142.6477  142.6884  169.9531 C.ar    1  UNL1        0.1567
      7 N         143.4129  141.5249  169.3958 N.ar    1  UNL1       -0.2245
      8 C         142.5492  140.8497  168.3719 C.ar    1  UNL1        0.0892
      9 C         142.7778  139.6518  167.4986 C.ar    1  UNL1        0.0198
     10 C         141.7074  139.2002  166.5498 C.ar    1  UNL1        0.0061
     11 C         140.4084  139.9466  166.4744 C.ar    1  UNL1        0.0539
     12 C         140.1799  141.1445  167.3477 C.ar    1  UNL1        0.0126
     13 C         141.2503  141.5960  168.2965 C.ar    1  UNL1        0.0498
     14 S         141.3112  142.7324  169.2737 S.2     1  UNL1       -0.0520
     15 H         144.0316  143.5291  171.3933 H       1  UNL1        0.1442
     16 H         142.5550  144.3775  171.3075 H       1  UNL1        0.1442
     17 C         138.5691  138.9121  163.1132 C.3     1  UNL1        0.0944
     18 C         137.7206  139.9246  162.4028 C.3     1  UNL1        0.0492
     19 C         138.2964  141.2598  162.0347 C.2     1  UNL1       -0.0002
     20 C         138.8187  141.6528  160.6846 C.2     1  UNL1        0.0942
     21 N         139.2962  143.0724  160.7674 N.2     1  UNL1       -0.2482
     22 C         139.0689  143.5567  162.1688 C.2     1  UNL1        0.0631
     23 C         139.3447  144.8732  162.8330 C.3     1  UNL1        0.0717
     24 C         139.0028  145.0693  164.2802 C.2     1  UNL1       -0.0198
     25 C         138.3849  143.9491  165.0634 C.2     1  UNL1       -0.0042
     26 C         138.1090  142.6327  164.3993 C.2     1  UNL1        0.0006
     27 C         138.4510  142.4365  162.9520 C.2     1  UNL1        0.0115
@<TRIPOS>BOND
     1     5     6    1
     2     6     7   ar
     3     7     8   ar
     4     8     9   ar
     5     9    10   ar
     6    10    11   ar
     7    11     1    1
     8     1     2    2
     9     1     3   am
    10     3    17    1
    11    17    18    1
    12    18    19    1
    13    19    20    2
    14    20    21    1
    15    21    22    2
    16    22    23    1
    17    23    24    1
    18    24    25    2
    19    25    26    1
    20    26    27    2
    21    11    12   ar
    22    12    13   ar
    23    13    14   ar
    24    14     6   ar
    25    13     8   ar
    26    27    19    1
    27    27    22    1
    28     5    15    1
    29     5    16    1
    30     3     4    1
@<TRIPOS>MOLECULE
*****
 27 30 0 0 0
SMALL
GASTEIGER

@<TRIPOS>ATOM
      1 C         141.4947  139.8364  164.1636 C.2     1  UNL1        0.2459
      2 O         140.7914  140.3650  162.9487 O.2     1  UNL1       -0.2701
      3 N         142.8098  139.1294  164.0206 N.am    1  UNL1       -0.3005
      4 H         143.2715  138.7825  164.8180 H       1  UNL1        0.1497
      5 N         140.3436  142.3320  171.5169 N.pl3   1  UNL1       -0.3375
      6 C         140.3223  141.7039  170.1549 C.ar    1  UNL1        0.1567
      7 N         139.2900  140.7436  169.6428 N.ar    1  UNL1       -0.2245
      8 C         139.6593  140.3721  168.2372 C.ar    1  UNL1        0.0892
      9 C         139.0106  139.4628  167.2360 C.ar    1  UNL1        0.0198
     10 C         139.6224  139.2843  165.8782 C.ar    1  UNL1        0.0061
     11 C         140.8829  140.0150  165.5215 C.ar    1  UNL1        0.0539
     12 C         141.5316  140.9243  166.5227 C.ar    1  UNL1        0.0126
     13 C         140.9198  141.1028  167.8806 C.ar    1  UNL1        0.0498
     14 S         141.3295  141.9259  169.0657 S.2     1  UNL1       -0.0520
     15 H         139.6341  142.1227  172.1666 H       1  UNL1        0.1442
     16 H         141.0670  142.9534  171.7611 H       1  UNL1        0.1442
     17 C         143.4216  138.9508  162.6627 C.3     1  UNL1        0.0944
     18 C         144.4909  139.8917  162.1922 C.3     1  UNL1        0.0492
     19 C         144.1787  141.3463  162.0009 C.2     1  UNL1       -0.0002
     20 C         143.7960  142.0033  160.7079 C.2     1  UNL1        0.0942
     21 N         143.5753  143.4624  160.9768 N.2     1  UNL1       -0.2482
     22 C         143.8215  143.7071  162.4361 C.2     1  UNL1        0.0631
     23 C         143.7543  144.9520  163.2705 C.3     1  UNL1        0.0717
     24 C         144.0601  144.8890  164.7375 C.2     1  UNL1       -0.0198
     25 C         144.4331  143.5811  165.3705 C.2     1  UNL1       -0.0042
     26 C         144.5003  142.3364  164.5362 C.2     1  UNL1        0.0006
     27 C         144.1945  142.3993  163.0690 C.2     1  UNL1        0.0115
@<TRIPOS>BOND
     1     5     6    1
     2     6     7   ar
     3     7     8   ar
     4     8     9   ar
     5     9    10   ar
     6    10    11   ar
     7    11     1    1
     8     1     2    2
     9     1     3   am
    10     3    17    1
    11    17    18    1
    12    18    19    1
    13    19    20    2
    14    20    21    1
    15    21    22    2
    16    22    23    1
    17    23    24    1
    18    24    25    2
    19    25    26    1
    20    26    27    2
    21    11    12   ar
    22    12    13   ar
    23    13    14   ar
    24    14     6   ar
    25    13     8   ar
    26    27    19    1
    27    27    22    1
    28     5    15    1
    29     5    16    1
    30     3     4    1
