@<TRIPOS>MOLECULE
*****
 41 45 0 0 0
SMALL
GASTEIGER

@<TRIPOS>ATOM
      1 C         142.3055  139.5716  161.6484 C.ar    1  UNL1        0.0208
      2 C         142.2608  138.1175  161.2825 C.ar    1  UNL1        0.1021
      3 N         142.6272  137.6818  159.8947 N.ar    1  UNL1       -0.2090
      4 C         143.0382  138.7000  158.8728 C.ar    1  UNL1        0.2400
      5 C         143.0829  140.1540  159.2387 C.ar    1  UNL1        0.1178
      6 C         142.7166  140.5898  160.6265 C.ar    1  UNL1        0.0221
      7 C         141.4702  140.6476  168.3859 C.ar    1  UNL1        0.2167
      8 N         142.4666  139.5446  168.1846 N.ar    1  UNL1       -0.2182
      9 C         142.8330  139.1088  166.7969 C.ar    1  UNL1        0.0638
     10 C         143.8295  138.0058  166.5956 C.3     1  UNL1        0.0522
     11 C         142.2029  139.7760  165.6104 C.ar    1  UNL1        0.0344
     12 C         142.5693  139.3402  164.2226 C.ar    1  UNL1        0.0029
     13 C         141.9392  140.0074  163.0361 C.ar    1  UNL1        0.0047
     14 C         140.9427  141.1104  163.2373 C.ar    1  UNL1        0.0385
     15 C         140.5763  141.5462  164.6251 C.ar    1  UNL1        0.1561
     16 C         141.2065  140.8790  165.8116 C.ar    1  UNL1        0.1191
     17 N         140.8401  141.3148  167.1994 N.ar    1  UNL1       -0.2107
     18 C         140.3286  140.1627  170.6688 C.3     1  UNL1        0.1108
     19 N         141.1039  141.0834  169.7737 N.pl3   1  UNL1       -0.3013
     20 H         141.3722  141.9737  170.0970 H       1  UNL1        0.1497
     21 O         139.5799  142.6492  164.8264 O.3     1  UNL1       -0.4750
     22 C         139.4530  143.7409  163.8054 C.3     1  UNL1        0.1979
     23 C         140.4517  144.8310  163.5517 C.3     1  UNL1        0.0782
     24 C         139.9211  145.6979  162.4484 C.3     1  UNL1        0.1461
     25 O         138.5946  145.1436  162.0205 O.3     1  UNL1       -0.3498
     26 C         138.3053  143.9340  162.8592 C.3     1  UNL1        0.1855
     27 O         143.4046  138.2643  157.4851 O.3     1  UNL1       -0.4553
     28 C         142.9088  136.9512  156.9559 C.3     1  UNL1        0.2543
     29 N         143.4940  141.1722  158.2168 N.pl3   1  UNL1       -0.2104
     30 H         144.3012  141.0254  157.6728 H       1  UNL1        0.1739
     31 S         142.6751  142.4141  158.0239 S.O2    1  UNL1        0.0759
     32 O         141.5575  141.5892  157.4578 O.2     1  UNL1       -0.1499
     33 O         143.7926  143.2390  158.5900 O.2     1  UNL1       -0.1499
     34 C         141.8562  143.6559  157.8310 C.ar    1  UNL1        0.1526
     35 C         141.8872  144.3781  156.5166 C.ar    1  UNL1        0.0248
     36 C         141.0683  145.6199  156.3236 C.ar    1  UNL1        0.0312
     37 C         140.2183  146.1396  157.4450 C.ar    1  UNL1        0.1425
     38 F         139.3994  147.3814  157.2521 F       1  UNL1       -0.2041
     39 C         140.1872  145.4174  158.7593 C.ar    1  UNL1        0.0606
     40 C         141.0061  144.1755  158.9523 C.ar    1  UNL1        0.1611
     41 F         140.9750  143.4534  160.2666 F       1  UNL1       -0.2027
@<TRIPOS>BOND
     1    18    19    1
     2    19     7    1
     3     7     8   ar
     4     8     9   ar
     5     9    10    1
     6     9    11   ar
     7    11    12   ar
     8    12    13   ar
     9    13     1    1
    10     1     2   ar
    11     2     3   ar
    12     3     4   ar
    13     4    27    1
    14    27    28    1
    15     4     5   ar
    16     5    29    1
    17    29    31    1
    18    31    32    2
    19    31    33    2
    20    31    34    1
    21    34    35   ar
    22    35    36   ar
    23    36    37   ar
    24    37    38    1
    25    37    39   ar
    26    39    40   ar
    27    40    41    1
    28     5     6   ar
    29    13    14   ar
    30    14    15   ar
    31    15    21    1
    32    22    21    1
    33    22    23    1
    34    23    24    1
    35    24    25    1
    36    25    26    1
    37    15    16   ar
    38    16    17   ar
    39    17     7   ar
    40    16    11   ar
    41     6     1   ar
    42    26    22    1
    43    40    34   ar
    44    19    20    1
    45    29    30    1
@<TRIPOS>MOLECULE
*****
 41 45 0 0 0
SMALL
GASTEIGER

@<TRIPOS>ATOM
      1 C         141.7344  140.7936  157.9972 C.ar    1  UNL1        0.0208
      2 C         142.0391  140.0605  156.7244 C.ar    1  UNL1        0.1021
      3 N         142.4861  138.6294  156.7718 N.ar    1  UNL1       -0.2090
      4 C         142.6284  137.9315  158.0920 C.ar    1  UNL1        0.2400
      5 C         142.3237  138.6646  159.3646 C.ar    1  UNL1        0.1178
      6 C         141.8767  140.0957  159.3172 C.ar    1  UNL1        0.0221
      7 C         139.1905  147.0284  156.6169 C.ar    1  UNL1        0.2167
      8 N         138.8815  146.1079  155.4736 N.ar    1  UNL1       -0.2182
      9 C         139.3284  144.6768  155.5210 C.ar    1  UNL1        0.0638
     10 C         139.0194  143.7563  154.3777 C.3     1  UNL1        0.0522
     11 C         140.0844  144.1663  156.7117 C.ar    1  UNL1        0.0344
     12 C         140.5314  142.7352  156.7591 C.ar    1  UNL1        0.0029
     13 C         141.2874  142.2247  157.9498 C.ar    1  UNL1        0.0047
     14 C         141.5965  143.1452  159.0931 C.ar    1  UNL1        0.0385
     15 C         141.1495  144.5763  159.0457 C.ar    1  UNL1        0.1561
     16 C         140.3934  145.0868  157.8550 C.ar    1  UNL1        0.1191
     17 N         139.9465  146.5179  157.8075 N.ar    1  UNL1       -0.2107
     18 C         138.8746  149.2445  155.2980 C.3     1  UNL1        0.1108
     19 N         138.7435  148.4595  156.5695 N.pl3   1  UNL1       -0.3013
     20 H         138.3640  148.8835  157.3729 H       1  UNL1        0.1497
     21 O         141.4585  145.4968  160.1890 O.3     1  UNL1       -0.4750
     22 C         140.8770  145.2293  161.5456 C.3     1  UNL1        0.1979
     23 C         141.5165  144.4204  162.6350 C.3     1  UNL1        0.0782
     24 C         140.5886  144.4148  163.8137 C.3     1  UNL1        0.1461
     25 O         139.3758  145.2203  163.4527 O.3     1  UNL1       -0.3498
     26 C         139.5540  145.7236  162.0509 C.3     1  UNL1        0.1855
     27 O         143.0754  136.5004  158.1394 O.3     1  UNL1       -0.4553
     28 C         143.0741  135.6724  156.8885 C.3     1  UNL1        0.2543
     29 N         142.4660  137.9666  160.6847 N.pl3   1  UNL1       -0.2104
     30 H         143.1990  137.3247  160.8256 H       1  UNL1        0.1739
     31 S         141.4915  138.2468  161.7901 S.O2    1  UNL1        0.0759
     32 O         140.3913  137.6339  160.9754 O.2     1  UNL1       -0.1499
     33 O         142.5917  138.8597  162.6048 O.2     1  UNL1       -0.1499
     34 C         140.5170  138.5269  162.8955 C.ar    1  UNL1        0.1526
     35 C         140.1419  137.4394  163.8582 C.ar    1  UNL1        0.0248
     36 C         139.1674  137.7195  164.9635 C.ar    1  UNL1        0.0312
     37 C         138.5680  139.0870  165.1062 C.ar    1  UNL1        0.1425
     38 F         137.5935  139.3671  166.2116 F       1  UNL1       -0.2041
     39 C         138.9430  140.1745  164.1436 C.ar    1  UNL1        0.0606
     40 C         139.9175  139.8944  163.0382 C.ar    1  UNL1        0.1611
     41 F         140.2925  140.9819  162.0755 F       1  UNL1       -0.2027
@<TRIPOS>BOND
     1    18    19    1
     2    19     7    1
     3     7     8   ar
     4     8     9   ar
     5     9    10    1
     6     9    11   ar
     7    11    12   ar
     8    12    13   ar
     9    13     1    1
    10     1     2   ar
    11     2     3   ar
    12     3     4   ar
    13     4    27    1
    14    27    28    1
    15     4     5   ar
    16     5    29    1
    17    29    31    1
    18    31    32    2
    19    31    33    2
    20    31    34    1
    21    34    35   ar
    22    35    36   ar
    23    36    37   ar
    24    37    38    1
    25    37    39   ar
    26    39    40   ar
    27    40    41    1
    28     5     6   ar
    29    13    14   ar
    30    14    15   ar
    31    15    21    1
    32    22    21    1
    33    22    23    1
    34    23    24    1
    35    24    25    1
    36    25    26    1
    37    15    16   ar
    38    16    17   ar
    39    17     7   ar
    40    16    11   ar
    41     6     1   ar
    42    26    22    1
    43    40    34   ar
    44    19    20    1
    45    29    30    1
@<TRIPOS>MOLECULE
*****
 41 45 0 0 0
SMALL
GASTEIGER

@<TRIPOS>ATOM
      1 C         141.1991  142.4013  157.7601 C.ar    1  UNL1        0.0208
      2 C         141.1662  143.1334  156.4512 C.ar    1  UNL1        0.1021
      3 N         140.6888  144.5545  156.3986 N.ar    1  UNL1       -0.2090
      4 C         140.2443  145.2433  157.6548 C.ar    1  UNL1        0.2400
      5 C         140.2772  144.5112  158.9636 C.ar    1  UNL1        0.1178
      6 C         140.7546  143.0901  159.0162 C.ar    1  UNL1        0.0221
      7 C         142.6871  135.7446  156.9091 C.ar    1  UNL1        0.2167
      8 N         141.7884  136.1931  155.7951 N.ar    1  UNL1       -0.2182
      9 C         141.3111  137.6142  155.7424 C.ar    1  UNL1        0.0638
     10 C         140.4123  138.0627  154.6284 C.3     1  UNL1        0.0522
     11 C         141.7324  138.5867  156.8039 C.ar    1  UNL1        0.0344
     12 C         141.2551  140.0077  156.7513 C.ar    1  UNL1        0.0029
     13 C         141.6764  140.9802  157.8127 C.ar    1  UNL1        0.0047
     14 C         142.5752  140.5317  158.9268 C.ar    1  UNL1        0.0385
     15 C         143.0525  139.1107  158.9794 C.ar    1  UNL1        0.1561
     16 C         142.6311  138.1381  157.9179 C.ar    1  UNL1        0.1191
     17 N         143.1085  136.7171  157.9705 N.ar    1  UNL1       -0.2107
     18 C         142.4404  133.2601  156.1906 C.3     1  UNL1        0.1108
     19 N         143.1645  134.3235  156.9617 N.pl3   1  UNL1       -0.3013
     20 H         143.9531  134.0889  157.5023 H       1  UNL1        0.1497
     21 O         143.9513  138.6621  160.0934 O.3     1  UNL1       -0.4750
     22 C         143.4095  138.5261  161.4856 C.3     1  UNL1        0.1979
     23 C         142.1063  137.8882  161.8660 C.3     1  UNL1        0.0782
     24 C         141.9671  137.9719  163.3572 C.3     1  UNL1        0.1461
     25 O         143.1844  138.6616  163.8983 O.3     1  UNL1       -0.3498
     26 C         144.0758  139.0040  162.7416 C.3     1  UNL1        0.1855
     27 O         139.7670  146.6644  157.6022 O.3     1  UNL1       -0.4553
     28 C         139.1712  147.2091  156.3379 C.3     1  UNL1        0.2543
     29 N         139.8328  145.2000  160.2197 N.pl3   1  UNL1       -0.2104
     30 H         139.5008  146.1261  160.1822 H       1  UNL1        0.1739
     31 S         139.8940  144.4779  161.5330 S.O2    1  UNL1        0.0759
     32 O         138.5005  143.9667  161.3169 O.2     1  UNL1       -0.1499
     33 O         141.2875  144.9891  161.7492 O.2     1  UNL1       -0.1499
     34 C         139.9552  143.7557  162.8463 C.ar    1  UNL1        0.1526
     35 C         139.4671  144.4280  164.0953 C.ar    1  UNL1        0.0248
     36 C         139.5283  143.7058  165.4086 C.ar    1  UNL1        0.0312
     37 C         140.0775  142.3115  165.4729 C.ar    1  UNL1        0.1425
     38 F         140.1387  141.5893  166.7862 F       1  UNL1       -0.2041
     39 C         140.5656  141.6393  164.2240 C.ar    1  UNL1        0.0606
     40 C         140.5044  142.3614  162.9106 C.ar    1  UNL1        0.1611
     41 F         140.9924  141.6892  161.6617 F       1  UNL1       -0.2027
@<TRIPOS>BOND
     1    18    19    1
     2    19     7    1
     3     7     8   ar
     4     8     9   ar
     5     9    10    1
     6     9    11   ar
     7    11    12   ar
     8    12    13   ar
     9    13     1    1
    10     1     2   ar
    11     2     3   ar
    12     3     4   ar
    13     4    27    1
    14    27    28    1
    15     4     5   ar
    16     5    29    1
    17    29    31    1
    18    31    32    2
    19    31    33    2
    20    31    34    1
    21    34    35   ar
    22    35    36   ar
    23    36    37   ar
    24    37    38    1
    25    37    39   ar
    26    39    40   ar
    27    40    41    1
    28     5     6   ar
    29    13    14   ar
    30    14    15   ar
    31    15    21    1
    32    22    21    1
    33    22    23    1
    34    23    24    1
    35    24    25    1
    36    25    26    1
    37    15    16   ar
    38    16    17   ar
    39    17     7   ar
    40    16    11   ar
    41     6     1   ar
    42    26    22    1
    43    40    34   ar
    44    19    20    1
    45    29    30    1
@<TRIPOS>MOLECULE
*****
 41 45 0 0 0
SMALL
GASTEIGER

@<TRIPOS>ATOM
      1 C         141.5673  138.4168  159.5720 C.ar    1  UNL1        0.0208
      2 C         140.2703  138.6678  158.8615 C.ar    1  UNL1        0.1021
      3 N         140.0896  138.2074  157.4454 N.ar    1  UNL1       -0.2090
      4 C         141.2060  137.4961  156.7398 C.ar    1  UNL1        0.2400
      5 C         142.5030  137.2452  157.4503 C.ar    1  UNL1        0.1178
      6 C         142.6836  137.7056  158.8664 C.ar    1  UNL1        0.0221
      7 C         141.2864  139.8755  166.2835 C.ar    1  UNL1        0.2167
      8 N         140.1021  139.0323  165.9143 N.ar    1  UNL1       -0.2182
      9 C         139.9214  138.5719  164.4981 C.ar    1  UNL1        0.0638
     10 C         138.7370  137.7286  164.1290 C.3     1  UNL1        0.0522
     11 C         140.9250  138.9548  163.4512 C.ar    1  UNL1        0.0344
     12 C         140.7444  138.4944  162.0351 C.ar    1  UNL1        0.0029
     13 C         141.7480  138.8772  160.9882 C.ar    1  UNL1        0.0047
     14 C         142.9324  139.7205  161.3573 C.ar    1  UNL1        0.0385
     15 C         143.1131  140.1809  162.7735 C.ar    1  UNL1        0.1561
     16 C         142.1093  139.7980  163.8204 C.ar    1  UNL1        0.1191
     17 N         142.2900  140.2584  165.2365 N.ar    1  UNL1       -0.2107
     18 C         142.8057  140.8293  168.1628 C.3     1  UNL1        0.1108
     19 N         141.4670  140.3359  167.6996 N.pl3   1  UNL1       -0.3013
     20 H         140.7070  140.3143  168.3250 H       1  UNL1        0.1497
     21 O         144.2974  141.0241  163.1426 O.3     1  UNL1       -0.4750
     22 C         144.1715  142.5184  163.1808 C.3     1  UNL1        0.1979
     23 C         143.8134  143.3426  164.3818 C.3     1  UNL1        0.0782
     24 C         143.8022  144.7844  163.9679 C.3     1  UNL1        0.1461
     25 O         144.1534  144.8511  162.5111 O.3     1  UNL1       -0.3498
     26 C         144.3816  143.4507  162.0246 C.3     1  UNL1        0.1855
     27 O         141.0253  137.0357  155.3237 O.3     1  UNL1       -0.4553
     28 C         141.1858  138.0080  154.1927 C.3     1  UNL1        0.2543
     29 N         143.6192  136.5339  156.7447 N.pl3   1  UNL1       -0.2104
     30 H         144.4302  137.0274  156.4837 H       1  UNL1        0.1739
     31 S         143.5001  135.0706  156.4368 S.O2    1  UNL1        0.0759
     32 O         143.3476  134.7753  157.8994 O.2     1  UNL1       -0.1499
     33 O         143.6525  135.3660  154.9741 O.2     1  UNL1       -0.1499
     34 C         143.3809  133.6074  156.1289 C.ar    1  UNL1        0.1526
     35 C         144.5692  132.7070  156.2941 C.ar    1  UNL1        0.0248
     36 C         144.4500  131.2438  155.9862 C.ar    1  UNL1        0.0312
     37 C         143.1425  130.6810  155.5131 C.ar    1  UNL1        0.1425
     38 F         143.0233  129.2178  155.2052 F       1  UNL1       -0.2041
     39 C         141.9543  131.5814  155.3479 C.ar    1  UNL1        0.0606
     40 C         142.0734  133.0446  155.6558 C.ar    1  UNL1        0.1611
     41 F         140.8852  133.9450  155.4905 F       1  UNL1       -0.2027
@<TRIPOS>BOND
     1    18    19    1
     2    19     7    1
     3     7     8   ar
     4     8     9   ar
     5     9    10    1
     6     9    11   ar
     7    11    12   ar
     8    12    13   ar
     9    13     1    1
    10     1     2   ar
    11     2     3   ar
    12     3     4   ar
    13     4    27    1
    14    27    28    1
    15     4     5   ar
    16     5    29    1
    17    29    31    1
    18    31    32    2
    19    31    33    2
    20    31    34    1
    21    34    35   ar
    22    35    36   ar
    23    36    37   ar
    24    37    38    1
    25    37    39   ar
    26    39    40   ar
    27    40    41    1
    28     5     6   ar
    29    13    14   ar
    30    14    15   ar
    31    15    21    1
    32    22    21    1
    33    22    23    1
    34    23    24    1
    35    24    25    1
    36    25    26    1
    37    15    16   ar
    38    16    17   ar
    39    17     7   ar
    40    16    11   ar
    41     6     1   ar
    42    26    22    1
    43    40    34   ar
    44    19    20    1
    45    29    30    1
@<TRIPOS>MOLECULE
*****
 41 45 0 0 0
SMALL
GASTEIGER

@<TRIPOS>ATOM
      1 C         141.3313  138.6673  159.1012 C.ar    1  UNL1        0.0208
      2 C         139.9624  138.5490  158.4994 C.ar    1  UNL1        0.1021
      3 N         139.7488  137.6973  157.2832 N.ar    1  UNL1       -0.2090
      4 C         140.9042  136.9640  156.6688 C.ar    1  UNL1        0.2400
      5 C         142.2731  137.0823  157.2706 C.ar    1  UNL1        0.1178
      6 C         142.4866  137.9339  158.4868 C.ar    1  UNL1        0.0221
      7 C         142.0219  141.4818  165.3343 C.ar    1  UNL1        0.2167
      8 N         141.6446  140.0380  165.4865 N.ar    1  UNL1       -0.2182
      9 C         141.4311  139.1864  164.2703 C.ar    1  UNL1        0.0638
     10 C         141.0538  137.7425  164.4226 C.3     1  UNL1        0.0522
     11 C         141.5948  139.7785  162.9019 C.ar    1  UNL1        0.0344
     12 C         141.3812  138.9268  161.6858 C.ar    1  UNL1        0.0029
     13 C         141.5449  139.5189  160.3174 C.ar    1  UNL1        0.0047
     14 C         141.9222  140.9627  160.1651 C.ar    1  UNL1        0.0385
     15 C         142.1357  141.8144  161.3813 C.ar    1  UNL1        0.1561
     16 C         141.9720  141.2222  162.7497 C.ar    1  UNL1        0.1191
     17 N         142.1856  142.0739  163.9659 N.ar    1  UNL1       -0.2107
     18 C         142.7099  141.7093  167.8292 C.3     1  UNL1        0.1108
     19 N         142.2354  142.3334  166.5505 N.pl3   1  UNL1       -0.3013
     20 H         142.0642  143.3020  166.5094 H       1  UNL1        0.1497
     21 O         142.5130  143.2581  161.2290 O.3     1  UNL1       -0.4750
     22 C         141.4462  144.3120  161.1896 C.3     1  UNL1        0.1979
     23 C         140.9861  145.1445  162.3494 C.3     1  UNL1        0.0782
     24 C         139.9077  146.0654  161.8600 C.3     1  UNL1        0.1461
     25 O         139.7015  145.8018  160.3978 O.3     1  UNL1       -0.3498
     26 C         140.6523  144.7182  159.9835 C.3     1  UNL1        0.1855
     27 O         140.6907  136.1123  155.4526 O.3     1  UNL1       -0.4553
     28 C         140.8371  136.7089  154.0841 C.3     1  UNL1        0.2543
     29 N         143.4284  136.3490  156.6563 N.pl3   1  UNL1       -0.2104
     30 H         144.1145  136.8444  156.1534 H       1  UNL1        0.1739
     31 S         143.5382  134.8607  156.8081 S.O2    1  UNL1        0.0759
     32 O         143.7645  134.7268  155.3313 O.2     1  UNL1       -0.1499
     33 O         143.3119  134.9945  158.2848 O.2     1  UNL1       -0.1499
     34 C         143.6480  133.3724  156.9598 C.ar    1  UNL1        0.1526
     35 C         144.8174  132.7769  157.6864 C.ar    1  UNL1        0.0248
     36 C         144.9272  131.2886  157.8382 C.ar    1  UNL1        0.0312
     37 C         143.8677  130.3959  157.2633 C.ar    1  UNL1        0.1425
     38 F         143.9775  128.9077  157.4151 F       1  UNL1       -0.2041
     39 C         142.6983  130.9914  156.5368 C.ar    1  UNL1        0.0606
     40 C         142.5885  132.4797  156.3850 C.ar    1  UNL1        0.1611
     41 F         141.4191  133.0752  155.6584 F       1  UNL1       -0.2027
@<TRIPOS>BOND
     1    18    19    1
     2    19     7    1
     3     7     8   ar
     4     8     9   ar
     5     9    10    1
     6     9    11   ar
     7    11    12   ar
     8    12    13   ar
     9    13     1    1
    10     1     2   ar
    11     2     3   ar
    12     3     4   ar
    13     4    27    1
    14    27    28    1
    15     4     5   ar
    16     5    29    1
    17    29    31    1
    18    31    32    2
    19    31    33    2
    20    31    34    1
    21    34    35   ar
    22    35    36   ar
    23    36    37   ar
    24    37    38    1
    25    37    39   ar
    26    39    40   ar
    27    40    41    1
    28     5     6   ar
    29    13    14   ar
    30    14    15   ar
    31    15    21    1
    32    22    21    1
    33    22    23    1
    34    23    24    1
    35    24    25    1
    36    25    26    1
    37    15    16   ar
    38    16    17   ar
    39    17     7   ar
    40    16    11   ar
    41     6     1   ar
    42    26    22    1
    43    40    34   ar
    44    19    20    1
    45    29    30    1
@<TRIPOS>MOLECULE
*****
 41 45 0 0 0
SMALL
GASTEIGER

@<TRIPOS>ATOM
      1 C         141.1109  141.3178  156.8818 C.ar    1  UNL1        0.0208
      2 C         140.9642  141.9652  155.5367 C.ar    1  UNL1        0.1021
      3 N         140.4134  143.3564  155.4299 N.ar    1  UNL1       -0.2090
      4 C         140.0093  144.1001  156.6684 C.ar    1  UNL1        0.2400
      5 C         140.1560  143.4527  158.0135 C.ar    1  UNL1        0.1178
      6 C         140.7068  142.0615  158.1202 C.ar    1  UNL1        0.0221
      7 C         143.5229  134.9323  156.0709 C.ar    1  UNL1        0.2167
      8 N         143.1811  135.5025  154.7263 N.ar    1  UNL1       -0.2182
      9 C         142.6303  136.8937  154.6196 C.ar    1  UNL1        0.0638
     10 C         142.2885  137.4639  153.2749 C.3     1  UNL1        0.0522
     11 C         142.4214  137.7146  155.8575 C.ar    1  UNL1        0.0344
     12 C         141.8706  139.1057  155.7507 C.ar    1  UNL1        0.0029
     13 C         141.6616  139.9267  156.9886 C.ar    1  UNL1        0.0047
     14 C         142.0035  139.3565  158.3333 C.ar    1  UNL1        0.0385
     15 C         142.5542  137.9654  158.4400 C.ar    1  UNL1        0.1561
     16 C         142.7632  137.1444  157.2020 C.ar    1  UNL1        0.1191
     17 N         143.3140  135.7533  157.3088 N.ar    1  UNL1       -0.2107
     18 C         143.2550  132.4572  156.8136 C.3     1  UNL1        0.1108
     19 N         144.0737  133.5412  156.1777 N.pl3   1  UNL1       -0.3013
     20 H         144.9725  133.3397  155.8303 H       1  UNL1        0.1497
     21 O         142.8960  137.3952  159.7846 O.3     1  UNL1       -0.4750
     22 C         143.1743  138.3115  160.9392 C.3     1  UNL1        0.1979
     23 C         144.2626  139.3418  161.0046 C.3     1  UNL1        0.0782
     24 C         144.1741  140.0255  162.3368 C.3     1  UNL1        0.1461
     25 O         143.0311  139.4177  163.0947 O.3     1  UNL1       -0.3498
     26 C         142.4133  138.3584  162.2309 C.3     1  UNL1        0.1855
     27 O         139.4586  145.4912  156.5616 O.3     1  UNL1       -0.4553
     28 C         138.8804  145.9714  155.2634 C.3     1  UNL1        0.2543
     29 N         139.7520  144.1964  159.2518 N.pl3   1  UNL1       -0.2104
     30 H         138.8632  144.6164  159.3058 H       1  UNL1        0.1739
     31 S         140.7021  144.3003  160.4079 S.O2    1  UNL1        0.0759
     32 O         141.5472  145.2625  159.6269 O.2     1  UNL1       -0.1499
     33 O         139.8570  143.3381  161.1889 O.2     1  UNL1       -0.1499
     34 C         141.6522  144.4042  161.5640 C.ar    1  UNL1        0.1526
     35 C         141.2928  145.2386  162.7576 C.ar    1  UNL1        0.0248
     36 C         142.2429  145.3425  163.9136 C.ar    1  UNL1        0.0312
     37 C         143.5524  144.6120  163.8761 C.ar    1  UNL1        0.1425
     38 F         144.5025  144.7159  165.0322 F       1  UNL1       -0.2041
     39 C         143.9119  143.7776  162.6826 C.ar    1  UNL1        0.0606
     40 C         142.9618  143.6737  161.5265 C.ar    1  UNL1        0.1611
     41 F         143.3213  142.8393  160.3330 F       1  UNL1       -0.2027
@<TRIPOS>BOND
     1    18    19    1
     2    19     7    1
     3     7     8   ar
     4     8     9   ar
     5     9    10    1
     6     9    11   ar
     7    11    12   ar
     8    12    13   ar
     9    13     1    1
    10     1     2   ar
    11     2     3   ar
    12     3     4   ar
    13     4    27    1
    14    27    28    1
    15     4     5   ar
    16     5    29    1
    17    29    31    1
    18    31    32    2
    19    31    33    2
    20    31    34    1
    21    34    35   ar
    22    35    36   ar
    23    36    37   ar
    24    37    38    1
    25    37    39   ar
    26    39    40   ar
    27    40    41    1
    28     5     6   ar
    29    13    14   ar
    30    14    15   ar
    31    15    21    1
    32    22    21    1
    33    22    23    1
    34    23    24    1
    35    24    25    1
    36    25    26    1
    37    15    16   ar
    38    16    17   ar
    39    17     7   ar
    40    16    11   ar
    41     6     1   ar
    42    26    22    1
    43    40    34   ar
    44    19    20    1
    45    29    30    1
@<TRIPOS>MOLECULE
*****
 41 45 0 0 0
SMALL
GASTEIGER

@<TRIPOS>ATOM
      1 C         141.1604  138.5729  157.4203 C.ar    1  UNL1        0.0208
      2 C         141.0355  139.8277  156.6079 C.ar    1  UNL1        0.1021
      3 N         141.1380  139.7664  155.1127 N.ar    1  UNL1       -0.2090
      4 C         141.3654  138.4503  154.4298 C.ar    1  UNL1        0.2400
      5 C         141.4903  137.1956  155.2422 C.ar    1  UNL1        0.1178
      6 C         141.3878  137.2569  156.7375 C.ar    1  UNL1        0.0221
      7 C         139.4324  139.1196  164.0509 C.ar    1  UNL1        0.2167
      8 N         138.2170  139.3598  163.2054 N.ar    1  UNL1       -0.2182
      9 C         138.3195  139.2985  161.7101 C.ar    1  UNL1        0.0638
     10 C         137.1040  139.5387  160.8646 C.3     1  UNL1        0.0522
     11 C         139.6375  138.9970  161.0605 C.ar    1  UNL1        0.0344
     12 C         139.7400  138.9357  159.5652 C.ar    1  UNL1        0.0029
     13 C         141.0579  138.6342  158.9155 C.ar    1  UNL1        0.0047
     14 C         142.2734  138.3940  159.7611 C.ar    1  UNL1        0.0385
     15 C         142.1709  138.4553  161.2563 C.ar    1  UNL1        0.1561
     16 C         140.8529  138.7568  161.9060 C.ar    1  UNL1        0.1191
     17 N         140.7504  138.8181  163.4012 N.ar    1  UNL1       -0.2107
     18 C         138.1258  138.6154  166.2392 C.3     1  UNL1        0.1108
     19 N         139.3299  139.1809  165.5462 N.pl3   1  UNL1       -0.3013
     20 H         140.0530  139.5923  166.0727 H       1  UNL1        0.1497
     21 O         143.3863  138.2152  162.1019 O.3     1  UNL1       -0.4750
     22 C         144.2075  139.3752  162.5815 C.3     1  UNL1        0.1979
     23 C         144.7574  139.5537  163.9656 C.3     1  UNL1        0.0782
     24 C         145.5128  140.8492  164.0008 C.3     1  UNL1        0.1461
     25 O         145.4296  141.4713  162.6383 O.3     1  UNL1       -0.3498
     26 C         144.6230  140.5603  161.7612 C.3     1  UNL1        0.1855
     27 O         141.4679  138.3890  152.9346 O.3     1  UNL1       -0.4553
     28 C         142.7755  138.6809  152.2599 C.3     1  UNL1        0.2543
     29 N         141.7177  135.8795  154.5594 N.pl3   1  UNL1       -0.2104
     30 H         141.3515  135.7223  153.6592 H       1  UNL1        0.1739
     31 S         142.5031  134.8030  155.2481 S.O2    1  UNL1        0.0759
     32 O         141.2419  134.0196  155.4617 O.2     1  UNL1       -0.1499
     33 O         143.7643  135.5864  155.0346 O.2     1  UNL1       -0.1499
     34 C         143.2884  133.7265  155.9368 C.ar    1  UNL1        0.1526
     35 C         143.6179  132.4565  155.2097 C.ar    1  UNL1        0.0248
     36 C         144.4032  131.3800  155.8984 C.ar    1  UNL1        0.0312
     37 C         144.8591  131.5734  157.3143 C.ar    1  UNL1        0.1425
     38 F         145.6444  130.4970  158.0030 F       1  UNL1       -0.2041
     39 C         144.5297  132.8433  158.0414 C.ar    1  UNL1        0.0606
     40 C         143.7444  133.9199  157.3527 C.ar    1  UNL1        0.1611
     41 F         143.4150  135.1898  158.0799 F       1  UNL1       -0.2027
@<TRIPOS>BOND
     1    18    19    1
     2    19     7    1
     3     7     8   ar
     4     8     9   ar
     5     9    10    1
     6     9    11   ar
     7    11    12   ar
     8    12    13   ar
     9    13     1    1
    10     1     2   ar
    11     2     3   ar
    12     3     4   ar
    13     4    27    1
    14    27    28    1
    15     4     5   ar
    16     5    29    1
    17    29    31    1
    18    31    32    2
    19    31    33    2
    20    31    34    1
    21    34    35   ar
    22    35    36   ar
    23    36    37   ar
    24    37    38    1
    25    37    39   ar
    26    39    40   ar
    27    40    41    1
    28     5     6   ar
    29    13    14   ar
    30    14    15   ar
    31    15    21    1
    32    22    21    1
    33    22    23    1
    34    23    24    1
    35    24    25    1
    36    25    26    1
    37    15    16   ar
    38    16    17   ar
    39    17     7   ar
    40    16    11   ar
    41     6     1   ar
    42    26    22    1
    43    40    34   ar
    44    19    20    1
    45    29    30    1
@<TRIPOS>MOLECULE
*****
 41 45 0 0 0
SMALL
GASTEIGER

@<TRIPOS>ATOM
      1 C         141.6621  142.6722  156.8406 C.ar    1  UNL1        0.0208
      2 C         140.8048  143.2741  155.7669 C.ar    1  UNL1        0.1021
      3 N         140.1619  144.6121  155.9826 N.ar    1  UNL1       -0.2090
      4 C         140.3763  145.3481  157.2719 C.ar    1  UNL1        0.2400
      5 C         141.2336  144.7462  158.3455 C.ar    1  UNL1        0.1178
      6 C         141.8765  143.4082  158.1298 C.ar    1  UNL1        0.0221
      7 C         143.4167  136.0679  156.0957 C.ar    1  UNL1        0.2167
      8 N         141.9567  136.1535  156.4291 N.ar    1  UNL1       -0.2182
      9 C         141.3138  137.4915  156.6447 C.ar    1  UNL1        0.0638
     10 C         139.8538  137.5770  156.9781 C.3     1  UNL1        0.0522
     11 C         142.1309  138.7439  156.5270 C.ar    1  UNL1        0.0344
     12 C         141.4880  140.0818  156.7427 C.ar    1  UNL1        0.0029
     13 C         142.3050  141.3342  156.6249 C.ar    1  UNL1        0.0047
     14 C         143.7651  141.2487  156.2915 C.ar    1  UNL1        0.0385
     15 C         144.4079  139.9107  156.0759 C.ar    1  UNL1        0.1561
     16 C         143.5908  138.6583  156.1936 C.ar    1  UNL1        0.1191
     17 N         144.2337  137.3203  155.9780 N.ar    1  UNL1       -0.2107
     18 C         143.2081  133.5191  155.6374 C.3     1  UNL1        0.1108
     19 N         144.0596  134.7299  155.8800 N.pl3   1  UNL1       -0.3013
     20 H         145.0404  134.6465  155.8978 H       1  UNL1        0.1497
     21 O         145.8679  139.8251  155.7425 O.3     1  UNL1       -0.4750
     22 C         146.5628  140.9948  155.1109 C.3     1  UNL1        0.1979
     23 C         146.5329  141.3573  153.6556 C.3     1  UNL1        0.0782
     24 C         147.3613  142.5939  153.4689 C.3     1  UNL1        0.1461
     25 O         147.9030  142.9956  154.8088 O.3     1  UNL1       -0.3498
     26 C         147.4095  142.0073  155.8235 C.3     1  UNL1        0.1855
     27 O         139.7334  146.6861  157.4876 O.3     1  UNL1       -0.4553
     28 C         139.0989  147.4077  156.3357 C.3     1  UNL1        0.2543
     29 N         141.4481  145.4823  159.6348 N.pl3   1  UNL1       -0.2104
     30 H         141.8398  146.3854  159.6267 H       1  UNL1        0.1739
     31 S         141.0657  144.8422  160.9364 S.O2    1  UNL1        0.0759
     32 O         139.6153  145.0223  160.5988 O.2     1  UNL1       -0.1499
     33 O         142.5160  144.6621  161.2740 O.2     1  UNL1       -0.1499
     34 C         140.6832  144.2022  162.2379 C.ar    1  UNL1        0.1526
     35 C         140.2856  145.0561  163.4054 C.ar    1  UNL1        0.0248
     36 C         139.9032  144.4161  164.7069 C.ar    1  UNL1        0.0312
     37 C         139.9183  142.9222  164.8411 C.ar    1  UNL1        0.1425
     38 F         139.5359  142.2822  166.1427 F       1  UNL1       -0.2041
     39 C         140.3159  142.0683  163.6738 C.ar    1  UNL1        0.0606
     40 C         140.6984  142.7083  162.3722 C.ar    1  UNL1        0.1611
     41 F         141.0960  141.8544  161.2048 F       1  UNL1       -0.2027
@<TRIPOS>BOND
     1    18    19    1
     2    19     7    1
     3     7     8   ar
     4     8     9   ar
     5     9    10    1
     6     9    11   ar
     7    11    12   ar
     8    12    13   ar
     9    13     1    1
    10     1     2   ar
    11     2     3   ar
    12     3     4   ar
    13     4    27    1
    14    27    28    1
    15     4     5   ar
    16     5    29    1
    17    29    31    1
    18    31    32    2
    19    31    33    2
    20    31    34    1
    21    34    35   ar
    22    35    36   ar
    23    36    37   ar
    24    37    38    1
    25    37    39   ar
    26    39    40   ar
    27    40    41    1
    28     5     6   ar
    29    13    14   ar
    30    14    15   ar
    31    15    21    1
    32    22    21    1
    33    22    23    1
    34    23    24    1
    35    24    25    1
    36    25    26    1
    37    15    16   ar
    38    16    17   ar
    39    17     7   ar
    40    16    11   ar
    41     6     1   ar
    42    26    22    1
    43    40    34   ar
    44    19    20    1
    45    29    30    1
@<TRIPOS>MOLECULE
*****
 41 45 0 0 0
SMALL
GASTEIGER

@<TRIPOS>ATOM
      1 C         144.2117  141.6078  158.3053 C.ar    1  UNL1        0.0208
      2 C         145.4299  142.4145  157.9654 C.ar    1  UNL1        0.1021
      3 N         146.1037  142.2322  156.6377 N.ar    1  UNL1       -0.2090
      4 C         145.5592  141.2433  155.6499 C.ar    1  UNL1        0.2400
      5 C         144.3411  140.4367  155.9898 C.ar    1  UNL1        0.1178
      6 C         143.6674  140.6190  157.3175 C.ar    1  UNL1        0.0221
      7 C         140.5996  143.5030  163.8380 C.ar    1  UNL1        0.2167
      8 N         140.3563  144.4868  162.7321 N.ar    1  UNL1       -0.2182
      9 C         141.0301  144.3045  161.4044 C.ar    1  UNL1        0.0638
     10 C         140.7867  145.2883  160.2985 C.3     1  UNL1        0.0522
     11 C         141.9471  143.1384  161.1826 C.ar    1  UNL1        0.0344
     12 C         142.6209  142.9561  159.8549 C.ar    1  UNL1        0.0029
     13 C         143.5380  141.7901  159.6330 C.ar    1  UNL1        0.0047
     14 C         143.7813  140.8063  160.7389 C.ar    1  UNL1        0.0385
     15 C         143.1076  140.9885  162.0666 C.ar    1  UNL1        0.1561
     16 C         142.1905  142.1547  162.2884 C.ar    1  UNL1        0.1191
     17 N         141.5167  142.3370  163.6161 N.ar    1  UNL1       -0.2107
     18 C         138.8444  144.7127  165.3232 C.3     1  UNL1        0.1108
     19 N         139.9259  143.6853  165.1657 N.pl3   1  UNL1       -0.3013
     20 H         140.1935  143.1306  165.9338 H       1  UNL1        0.1497
     21 O         143.3509  140.0048  163.1725 O.3     1  UNL1       -0.4750
     22 C         142.4358  138.8288  163.3450 C.3     1  UNL1        0.1979
     23 C         141.9546  138.2704  164.6514 C.3     1  UNL1        0.0782
     24 C         141.0626  137.1012  164.3552 C.3     1  UNL1        0.1461
     25 O         140.9927  136.9371  162.8658 O.3     1  UNL1       -0.3498
     26 C         141.8413  138.0048  162.2415 C.3     1  UNL1        0.1855
     27 O         146.2330  141.0610  154.3221 O.3     1  UNL1       -0.4553
     28 C         147.5399  141.7430  154.0444 C.3     1  UNL1        0.2543
     29 N         143.7968  139.4478  155.0020 N.pl3   1  UNL1       -0.2104
     30 H         143.5816  139.7353  154.0853 H       1  UNL1        0.1739
     31 S         143.5802  138.0209  155.4108 S.O2    1  UNL1        0.0759
     32 O         142.1004  138.1964  155.2393 O.2     1  UNL1       -0.1499
     33 O         145.0599  137.8454  155.5824 O.2     1  UNL1       -0.1499
     34 C         143.3635  136.5941  155.8197 C.ar    1  UNL1        0.1526
     35 C         143.3672  135.5085  154.7845 C.ar    1  UNL1        0.0248
     36 C         143.1505  134.0816  155.1934 C.ar    1  UNL1        0.0312
     37 C         142.9303  133.7404  156.6373 C.ar    1  UNL1        0.1425
     38 F         142.7136  132.3135  157.0461 F       1  UNL1       -0.2041
     39 C         142.9266  134.8259  157.6724 C.ar    1  UNL1        0.0606
     40 C         143.1433  136.2528  157.2636 C.ar    1  UNL1        0.1611
     41 F         143.1396  137.3384  158.2987 F       1  UNL1       -0.2027
@<TRIPOS>BOND
     1    18    19    1
     2    19     7    1
     3     7     8   ar
     4     8     9   ar
     5     9    10    1
     6     9    11   ar
     7    11    12   ar
     8    12    13   ar
     9    13     1    1
    10     1     2   ar
    11     2     3   ar
    12     3     4   ar
    13     4    27    1
    14    27    28    1
    15     4     5   ar
    16     5    29    1
    17    29    31    1
    18    31    32    2
    19    31    33    2
    20    31    34    1
    21    34    35   ar
    22    35    36   ar
    23    36    37   ar
    24    37    38    1
    25    37    39   ar
    26    39    40   ar
    27    40    41    1
    28     5     6   ar
    29    13    14   ar
    30    14    15   ar
    31    15    21    1
    32    22    21    1
    33    22    23    1
    34    23    24    1
    35    24    25    1
    36    25    26    1
    37    15    16   ar
    38    16    17   ar
    39    17     7   ar
    40    16    11   ar
    41     6     1   ar
    42    26    22    1
    43    40    34   ar
    44    19    20    1
    45    29    30    1
