@<TRIPOS>MOLECULE
*****
 33 35 0 0 0
SMALL
GASTEIGER

@<TRIPOS>ATOM
      1 C         143.4760  139.3930  162.3738 C.ar    1  UNL1        0.0537
      2 C         143.7657  140.4384  161.3378 C.ar    1  UNL1        0.0042
      3 C         143.5917  140.1203  159.8823 C.ar    1  UNL1       -0.0025
      4 C         143.1281  138.7568  159.4628 C.ar    1  UNL1       -0.0026
      5 C         142.8384  137.7115  160.4988 C.ar    1  UNL1       -0.0025
      6 C         143.0124  138.0295  161.9543 C.ar    1  UNL1        0.0042
      7 N         142.4624  140.0994  164.6593 N.am    1  UNL1       -0.2794
      8 C         143.6500  139.7111  163.8293 C.2     1  UNL1        0.2495
      9 O         145.0115  139.6410  164.4548 O.2     1  UNL1       -0.2698
     10 H         141.5688  140.1454  164.2488 H       1  UNL1        0.1552
     11 N         143.0613  142.9104  165.5192 N.pl3   1  UNL1       -0.3560
     12 C         142.9358  141.8230  166.5448 C.ar    1  UNL1        0.0553
     13 C         143.1098  142.1411  168.0003 C.ar    1  UNL1        0.0176
     14 C         142.9843  141.0537  169.0259 C.ar    1  UNL1        0.0310
     15 C         142.6848  139.6482  168.5960 C.ar    1  UNL1        0.1415
     16 F         142.5593  138.5608  169.6215 F       1  UNL1       -0.2041
     17 C         142.5109  139.3301  167.1405 C.ar    1  UNL1        0.0455
     18 C         142.6364  140.4175  166.1149 C.ar    1  UNL1        0.0659
     19 H         143.2579  143.8329  165.8014 H       1  UNL1        0.1424
     20 H         142.9472  142.7017  164.5639 H       1  UNL1        0.1424
     21 C         142.9541  138.4387  158.0072 C.3     1  UNL1        0.1166
     22 N         142.9814  137.0127  157.5427 N.am    1  UNL1       -0.2969
     23 C         143.7435  136.6414  156.3053 C.2     1  UNL1        0.2462
     24 O         144.4784  137.6961  155.5324 O.2     1  UNL1       -0.2701
     25 H         142.4991  136.3204  158.0501 H       1  UNL1        0.1501
     26 C         143.7708  135.2154  155.8408 C.2     1  UNL1        0.0578
     27 C         143.5157  134.1041  156.8155 C.2     1  UNL1        0.0062
     28 C         143.5429  132.6781  156.3510 C.ar    1  UNL1        0.0193
     29 C         144.8510  131.9547  156.2267 C.ar    1  UNL1        0.0031
     30 C         144.8783  130.5287  155.7623 C.ar    1  UNL1        0.0207
     31 C         143.5975  129.8261  155.4221 C.ar    1  UNL1        0.0989
     32 N         142.2893  130.5495  155.5464 N.ar    1  UNL1       -0.2423
     33 C         142.2620  131.9755  156.0109 C.ar    1  UNL1        0.0988
@<TRIPOS>BOND
     1    11    12    1
     2    12    13   ar
     3    13    14   ar
     4    14    15   ar
     5    15    16    1
     6    15    17   ar
     7    17    18   ar
     8    18     7    1
     9     7     8   am
    10     8     9    2
    11     8     1    1
    12     1     2   ar
    13     2     3   ar
    14     3     4   ar
    15     4    21    1
    16    21    22    1
    17    22    23   am
    18    23    24    2
    19    23    26    1
    20    26    27    2
    21    27    28    1
    22    28    29   ar
    23    29    30   ar
    24    30    31   ar
    25    31    32   ar
    26    32    33   ar
    27     4     5   ar
    28     5     6   ar
    29    18    12   ar
    30     6     1   ar
    31    33    28   ar
    32    11    19    1
    33    11    20    1
    34     7    10    1
    35    22    25    1
@<TRIPOS>MOLECULE
*****
 33 35 0 0 0
SMALL
GASTEIGER

@<TRIPOS>ATOM
      1 C         138.5946  139.6979  159.4396 C.ar    1  UNL1        0.0537
      2 C         139.8527  138.9267  159.7083 C.ar    1  UNL1        0.0042
      3 C         140.0490  138.2493  161.0321 C.ar    1  UNL1       -0.0025
      4 C         138.9870  138.3431  162.0872 C.ar    1  UNL1       -0.0026
      5 C         137.7288  139.1143  161.8185 C.ar    1  UNL1       -0.0025
      6 C         137.5326  139.7917  160.4947 C.ar    1  UNL1        0.0042
      7 N         137.0127  140.6616  157.6177 N.am    1  UNL1       -0.2794
      8 C         138.3984  140.3754  158.1157 C.2     1  UNL1        0.2495
      9 O         139.5879  140.7665  157.2898 O.2     1  UNL1       -0.2698
     10 H         136.2320  140.4049  158.1598 H       1  UNL1        0.1552
     11 N         136.2552  139.0481  155.2047 N.pl3   1  UNL1       -0.3560
     12 C         136.4378  140.5323  155.0873 C.ar    1  UNL1        0.0553
     13 C         136.2416  141.2098  153.7635 C.ar    1  UNL1        0.0176
     14 C         136.4242  142.6940  153.6462 C.ar    1  UNL1        0.0310
     15 C         136.8030  143.5008  154.8527 C.ar    1  UNL1        0.1415
     16 F         136.9855  144.9850  154.7353 F       1  UNL1       -0.2041
     17 C         136.9991  142.8233  156.1765 C.ar    1  UNL1        0.0455
     18 C         136.8165  141.3391  156.2938 C.ar    1  UNL1        0.0659
     19 H         136.0066  138.5186  154.4128 H       1  UNL1        0.1424
     20 H         136.3840  138.6035  156.0735 H       1  UNL1        0.1424
     21 C         139.1832  137.6656  163.4111 C.3     1  UNL1        0.1166
     22 N         139.9600  138.3505  164.4962 N.am    1  UNL1       -0.2969
     23 C         139.2372  139.0377  165.6167 C.2     1  UNL1        0.2462
     24 O         137.7376  139.0399  165.6519 O.2     1  UNL1       -0.2701
     25 H         140.9442  138.3491  164.4731 H       1  UNL1        0.1501
     26 C         140.0140  139.7226  166.7018 C.2     1  UNL1        0.0578
     27 C         139.3563  140.0324  168.0138 C.2     1  UNL1        0.0062
     28 C         140.1330  140.7173  169.0989 C.ar    1  UNL1        0.0193
     29 C         141.0201  141.8803  168.7666 C.ar    1  UNL1        0.0031
     30 C         141.7969  142.5652  169.8517 C.ar    1  UNL1        0.0207
     31 C         141.6866  142.0871  171.2692 C.ar    1  UNL1        0.0989
     32 N         140.7995  140.9241  171.6016 N.ar    1  UNL1       -0.2423
     33 C         140.0227  140.2391  170.5165 C.ar    1  UNL1        0.0988
@<TRIPOS>BOND
     1    11    12    1
     2    12    13   ar
     3    13    14   ar
     4    14    15   ar
     5    15    16    1
     6    15    17   ar
     7    17    18   ar
     8    18     7    1
     9     7     8   am
    10     8     9    2
    11     8     1    1
    12     1     2   ar
    13     2     3   ar
    14     3     4   ar
    15     4    21    1
    16    21    22    1
    17    22    23   am
    18    23    24    2
    19    23    26    1
    20    26    27    2
    21    27    28    1
    22    28    29   ar
    23    29    30   ar
    24    30    31   ar
    25    31    32   ar
    26    32    33   ar
    27     4     5   ar
    28     5     6   ar
    29    18    12   ar
    30     6     1   ar
    31    33    28   ar
    32    11    19    1
    33    11    20    1
    34     7    10    1
    35    22    25    1
@<TRIPOS>MOLECULE
*****
 33 35 0 0 0
SMALL
GASTEIGER

@<TRIPOS>ATOM
      1 C         139.2508  139.9863  159.4256 C.ar    1  UNL1        0.0537
      2 C         138.7685  139.0781  160.5176 C.ar    1  UNL1        0.0042
      3 C         138.1560  139.6567  161.7586 C.ar    1  UNL1       -0.0025
      4 C         138.0260  141.1436  161.9076 C.ar    1  UNL1       -0.0026
      5 C         138.5084  142.0518  160.8156 C.ar    1  UNL1       -0.0025
      6 C         139.1208  141.4732  159.5746 C.ar    1  UNL1        0.0042
      7 N         140.6804  138.1524  158.2667 N.am    1  UNL1       -0.2794
      8 C         139.8633  139.4076  158.1846 C.2     1  UNL1        0.2495
      9 O         139.6586  140.0841  156.8616 O.2     1  UNL1       -0.2698
     10 H         140.8148  137.7084  159.1350 H       1  UNL1        0.1552
     11 N         138.9298  136.9266  156.1612 N.pl3   1  UNL1       -0.3560
     12 C         140.4176  136.9608  155.9729 C.ar    1  UNL1        0.0553
     13 C         141.0301  136.3821  154.7320 C.ar    1  UNL1        0.0176
     14 C         142.5178  136.4163  154.5438 C.ar    1  UNL1        0.0310
     15 C         143.3931  137.0292  155.5965 C.ar    1  UNL1        0.1415
     16 F         144.8808  137.0633  155.4083 F       1  UNL1       -0.2041
     17 C         142.7806  137.6078  156.8374 C.ar    1  UNL1        0.0455
     18 C         141.2929  137.5737  157.0257 C.ar    1  UNL1        0.0659
     19 H         138.3554  136.5244  155.4702 H       1  UNL1        0.1424
     20 H         138.5279  137.3064  156.9757 H       1  UNL1        0.1424
     21 C         137.4135  141.7223  163.1486 C.3     1  UNL1        0.1166
     22 N         138.2588  141.9479  164.3671 N.am    1  UNL1       -0.2969
     23 C         138.9433  143.2668  164.5713 C.2     1  UNL1        0.2462
     24 O         138.7825  144.3602  163.5571 O.2     1  UNL1       -0.2701
     25 H         138.3643  141.2303  165.0327 H       1  UNL1        0.1501
     26 C         139.7885  143.4924  165.7898 C.2     1  UNL1        0.0578
     27 C         140.1791  142.3325  166.6569 C.2     1  UNL1        0.0062
     28 C         141.0243  142.5581  167.8754 C.ar    1  UNL1        0.0193
     29 C         142.4442  142.0753  167.9031 C.ar    1  UNL1        0.0031
     30 C         143.2895  142.3008  169.1215 C.ar    1  UNL1        0.0207
     31 C         142.7149  143.0092  170.3123 C.ar    1  UNL1        0.0989
     32 N         141.2949  143.4921  170.2846 N.ar    1  UNL1       -0.2423
     33 C         140.4497  143.2665  169.0662 C.ar    1  UNL1        0.0988
@<TRIPOS>BOND
     1    11    12    1
     2    12    13   ar
     3    13    14   ar
     4    14    15   ar
     5    15    16    1
     6    15    17   ar
     7    17    18   ar
     8    18     7    1
     9     7     8   am
    10     8     9    2
    11     8     1    1
    12     1     2   ar
    13     2     3   ar
    14     3     4   ar
    15     4    21    1
    16    21    22    1
    17    22    23   am
    18    23    24    2
    19    23    26    1
    20    26    27    2
    21    27    28    1
    22    28    29   ar
    23    29    30   ar
    24    30    31   ar
    25    31    32   ar
    26    32    33   ar
    27     4     5   ar
    28     5     6   ar
    29    18    12   ar
    30     6     1   ar
    31    33    28   ar
    32    11    19    1
    33    11    20    1
    34     7    10    1
    35    22    25    1
@<TRIPOS>MOLECULE
*****
 33 35 0 0 0
SMALL
GASTEIGER

@<TRIPOS>ATOM
      1 C         141.6623  138.2865  162.4883 C.ar    1  UNL1        0.0537
      2 C         140.5469  138.4816  161.5045 C.ar    1  UNL1        0.0042
      3 C         140.8223  138.3987  160.0323 C.ar    1  UNL1       -0.0025
      4 C         142.2131  138.1208  159.5440 C.ar    1  UNL1       -0.0026
      5 C         143.3284  137.9258  160.5278 C.ar    1  UNL1       -0.0025
      6 C         143.0530  138.0086  162.0000 C.ar    1  UNL1        0.0042
      7 N         141.2866  139.7076  164.6306 N.am    1  UNL1       -0.2794
      8 C         141.3868  138.3694  163.9605 C.2     1  UNL1        0.2495
      9 O         141.2116  137.1140  164.7625 O.2     1  UNL1       -0.2698
     10 H         141.4016  140.5316  164.1042 H       1  UNL1        0.1552
     11 N         138.4574  139.7873  165.6252 N.pl3   1  UNL1       -0.3560
     12 C         139.5966  139.8303  166.6001 C.ar    1  UNL1        0.0553
     13 C         139.3212  139.9132  168.0722 C.ar    1  UNL1        0.0176
     14 C         140.4604  139.9562  169.0471 C.ar    1  UNL1        0.0310
     15 C         141.8749  139.9163  168.5498 C.ar    1  UNL1        0.1415
     16 F         143.0141  139.9593  169.5247 F       1  UNL1       -0.2041
     17 C         142.1503  139.8335  167.0777 C.ar    1  UNL1        0.0455
     18 C         141.0111  139.7905  166.1028 C.ar    1  UNL1        0.0659
     19 H         137.5289  139.8135  165.9516 H       1  UNL1        0.1424
     20 H         138.6381  139.7330  164.6590 H       1  UNL1        0.1424
     21 C         142.4885  138.0380  158.0718 C.3     1  UNL1        0.1166
     22 N         142.7972  136.7130  157.4400 N.am    1  UNL1       -0.2969
     23 C         143.6693  136.6482  156.2213 C.2     1  UNL1        0.2462
     24 O         144.2328  137.9084  155.6345 O.2     1  UNL1       -0.2701
     25 H         142.4274  135.8859  157.8251 H       1  UNL1        0.1501
     26 C         143.9780  135.3233  155.5895 C.2     1  UNL1        0.0578
     27 C         143.2624  134.0880  156.0497 C.2     1  UNL1        0.0062
     28 C         143.5711  132.7630  155.4179 C.ar    1  UNL1        0.0193
     29 C         144.5432  131.8277  156.0737 C.ar    1  UNL1        0.0031
     30 C         144.8519  130.5028  155.4418 C.ar    1  UNL1        0.0207
     31 C         144.1885  130.1131  154.1543 C.ar    1  UNL1        0.0989
     32 N         143.2162  131.0484  153.4984 N.ar    1  UNL1       -0.2423
     33 C         142.9075  132.3734  154.1302 C.ar    1  UNL1        0.0988
@<TRIPOS>BOND
     1    11    12    1
     2    12    13   ar
     3    13    14   ar
     4    14    15   ar
     5    15    16    1
     6    15    17   ar
     7    17    18   ar
     8    18     7    1
     9     7     8   am
    10     8     9    2
    11     8     1    1
    12     1     2   ar
    13     2     3   ar
    14     3     4   ar
    15     4    21    1
    16    21    22    1
    17    22    23   am
    18    23    24    2
    19    23    26    1
    20    26    27    2
    21    27    28    1
    22    28    29   ar
    23    29    30   ar
    24    30    31   ar
    25    31    32   ar
    26    32    33   ar
    27     4     5   ar
    28     5     6   ar
    29    18    12   ar
    30     6     1   ar
    31    33    28   ar
    32    11    19    1
    33    11    20    1
    34     7    10    1
    35    22    25    1
@<TRIPOS>MOLECULE
*****
 33 35 0 0 0
SMALL
GASTEIGER

@<TRIPOS>ATOM
      1 C         138.9869  139.3370  165.3390 C.ar    1  UNL1        0.0537
      2 C         139.2045  137.9645  164.7742 C.ar    1  UNL1        0.0042
      3 C         138.8263  137.6698  163.3529 C.ar    1  UNL1       -0.0025
      4 C         138.2306  138.7475  162.4965 C.ar    1  UNL1       -0.0026
      5 C         138.0130  140.1200  163.0613 C.ar    1  UNL1       -0.0025
      6 C         138.3911  140.4147  164.4826 C.ar    1  UNL1        0.0042
      7 N         140.5872  140.4490  167.0573 N.am    1  UNL1       -0.2794
      8 C         139.3650  139.6317  166.7604 C.2     1  UNL1        0.2495
      9 O         138.5209  139.1091  167.8848 O.2     1  UNL1       -0.2698
     10 H         141.1412  140.7920  166.3193 H       1  UNL1        0.1552
     11 N         142.9606  139.0903  168.2907 N.pl3   1  UNL1       -0.3560
     12 C         142.1521  140.0643  169.0953 C.ar    1  UNL1        0.0553
     13 C         142.5302  140.3591  170.5166 C.ar    1  UNL1        0.0176
     14 C         141.7216  141.3331  171.3212 C.ar    1  UNL1        0.0310
     15 C         140.5350  142.0125  170.7046 C.ar    1  UNL1        0.1415
     16 F         139.7264  142.9865  171.5092 F       1  UNL1       -0.2041
     17 C         140.1569  141.7178  169.2833 C.ar    1  UNL1        0.0455
     18 C         140.9654  140.7437  168.4787 C.ar    1  UNL1        0.0659
     19 H         143.7395  138.6444  168.6954 H       1  UNL1        0.1424
     20 H         142.7124  138.8969  167.3578 H       1  UNL1        0.1424
     21 C         137.8524  138.4528  161.0751 C.3     1  UNL1        0.1166
     22 N         137.4418  139.5693  160.1614 N.am    1  UNL1       -0.2969
     23 C         138.4855  140.4205  159.5012 C.2     1  UNL1        0.2462
     24 O         139.9399  140.1553  159.7547 O.2     1  UNL1       -0.2701
     25 H         136.4872  139.7433  159.9950 H       1  UNL1        0.1501
     26 C         138.0749  141.5370  158.5875 C.2     1  UNL1        0.0578
     27 C         139.0761  142.1475  157.6522 C.2     1  UNL1        0.0062
     28 C         138.6655  143.2640  156.7385 C.ar    1  UNL1        0.0193
     29 C         139.6120  144.3946  156.4634 C.ar    1  UNL1        0.0031
     30 C         139.2014  145.5110  155.5496 C.ar    1  UNL1        0.0207
     31 C         137.8442  145.4969  154.9111 C.ar    1  UNL1        0.0989
     32 N         136.8976  144.3662  155.1862 N.ar    1  UNL1       -0.2423
     33 C         137.3082  143.2498  156.0999 C.ar    1  UNL1        0.0988
@<TRIPOS>BOND
     1    11    12    1
     2    12    13   ar
     3    13    14   ar
     4    14    15   ar
     5    15    16    1
     6    15    17   ar
     7    17    18   ar
     8    18     7    1
     9     7     8   am
    10     8     9    2
    11     8     1    1
    12     1     2   ar
    13     2     3   ar
    14     3     4   ar
    15     4    21    1
    16    21    22    1
    17    22    23   am
    18    23    24    2
    19    23    26    1
    20    26    27    2
    21    27    28    1
    22    28    29   ar
    23    29    30   ar
    24    30    31   ar
    25    31    32   ar
    26    32    33   ar
    27     4     5   ar
    28     5     6   ar
    29    18    12   ar
    30     6     1   ar
    31    33    28   ar
    32    11    19    1
    33    11    20    1
    34     7    10    1
    35    22    25    1
@<TRIPOS>MOLECULE
*****
 33 35 0 0 0
SMALL
GASTEIGER

@<TRIPOS>ATOM
      1 C         139.3415  139.5629  165.4643 C.ar    1  UNL1        0.0537
      2 C         139.6189  138.1441  165.0642 C.ar    1  UNL1        0.0042
      3 C         139.1334  137.6293  163.7416 C.ar    1  UNL1       -0.0025
      4 C         138.3706  138.5332  162.8192 C.ar    1  UNL1       -0.0026
      5 C         138.0933  139.9520  163.2193 C.ar    1  UNL1       -0.0025
      6 C         138.5787  140.4668  164.5419 C.ar    1  UNL1        0.0042
      7 N         141.0069  141.0021  166.8446 N.am    1  UNL1       -0.2794
      8 C         139.8271  140.0777  166.7869 C.2     1  UNL1        0.2495
      9 O         139.1326  139.6681  168.0518 O.2     1  UNL1       -0.2698
     10 H         141.4627  141.2709  166.0144 H       1  UNL1        0.1552
     11 N         142.8886  139.3510  168.4979 N.pl3   1  UNL1       -0.3560
     12 C         142.4333  140.6914  168.9938 C.ar    1  UNL1        0.0553
     13 C         142.9187  141.2062  170.3164 C.ar    1  UNL1        0.0176
     14 C         142.4634  142.5466  170.8124 C.ar    1  UNL1        0.0310
     15 C         141.5226  143.3721  169.9858 C.ar    1  UNL1        0.1415
     16 F         141.0672  144.7125  170.4818 F       1  UNL1       -0.2041
     17 C         141.0371  142.8573  168.6633 C.ar    1  UNL1        0.0455
     18 C         141.4925  141.5169  168.1673 C.ar    1  UNL1        0.0659
     19 H         143.5061  138.8091  169.0404 H       1  UNL1        0.1424
     20 H         142.5700  139.0131  167.6298 H       1  UNL1        0.1424
     21 C         137.8851  138.0184  161.4965 C.3     1  UNL1        0.1166
     22 N         138.8590  137.7821  160.3804 N.am    1  UNL1       -0.2969
     23 C         139.2486  138.9114  159.4733 C.2     1  UNL1        0.2462
     24 O         138.6643  140.2769  159.6823 O.2     1  UNL1       -0.2701
     25 H         139.2425  136.8858  160.2433 H       1  UNL1        0.1501
     26 C         140.2225  138.6751  158.3572 C.2     1  UNL1        0.0578
     27 C         141.6336  138.2710  158.6661 C.2     1  UNL1        0.0062
     28 C         142.6075  138.0347  157.5501 C.ar    1  UNL1        0.0193
     29 C         142.7986  136.6517  157.0016 C.ar    1  UNL1        0.0031
     30 C         143.7725  136.4154  155.8855 C.ar    1  UNL1        0.0207
     31 C         144.5554  137.5621  155.3179 C.ar    1  UNL1        0.0989
     32 N         144.3643  138.9451  155.8663 N.ar    1  UNL1       -0.2423
     33 C         143.3904  139.1814  156.9824 C.ar    1  UNL1        0.0988
@<TRIPOS>BOND
     1    11    12    1
     2    12    13   ar
     3    13    14   ar
     4    14    15   ar
     5    15    16    1
     6    15    17   ar
     7    17    18   ar
     8    18     7    1
     9     7     8   am
    10     8     9    2
    11     8     1    1
    12     1     2   ar
    13     2     3   ar
    14     3     4   ar
    15     4    21    1
    16    21    22    1
    17    22    23   am
    18    23    24    2
    19    23    26    1
    20    26    27    2
    21    27    28    1
    22    28    29   ar
    23    29    30   ar
    24    30    31   ar
    25    31    32   ar
    26    32    33   ar
    27     4     5   ar
    28     5     6   ar
    29    18    12   ar
    30     6     1   ar
    31    33    28   ar
    32    11    19    1
    33    11    20    1
    34     7    10    1
    35    22    25    1
@<TRIPOS>MOLECULE
*****
 33 35 0 0 0
SMALL
GASTEIGER

@<TRIPOS>ATOM
      1 C         142.7261  139.1141  165.0829 C.ar    1  UNL1        0.0537
      2 C         143.9585  139.5608  164.3536 C.ar    1  UNL1        0.0042
      3 C         144.1814  139.1414  162.9308 C.ar    1  UNL1       -0.0025
      4 C         143.1719  138.2755  162.2373 C.ar    1  UNL1       -0.0026
      5 C         141.9396  137.8288  162.9665 C.ar    1  UNL1       -0.0025
      6 C         141.7167  138.2482  164.3894 C.ar    1  UNL1        0.0042
      7 N         141.5748  140.6700  166.8160 N.am    1  UNL1       -0.2794
      8 C         142.5032  139.5335  166.5058 C.2     1  UNL1        0.2495
      9 O         143.2088  138.8163  167.6183 O.2     1  UNL1       -0.2698
     10 H         141.1117  141.1407  166.0858 H       1  UNL1        0.1552
     11 N         139.1764  139.6713  168.3162 N.pl3   1  UNL1       -0.3560
     12 C         140.1527  140.5901  168.9889 C.ar    1  UNL1        0.0553
     13 C         139.9299  141.0094  170.4117 C.ar    1  UNL1        0.0176
     14 C         140.9063  141.9282  171.0845 C.ar    1  UNL1        0.0310
     15 C         142.1054  142.4276  170.3345 C.ar    1  UNL1        0.1415
     16 F         143.0818  143.3463  171.0073 F       1  UNL1       -0.2041
     17 C         142.3283  142.0082  168.9117 C.ar    1  UNL1        0.0455
     18 C         141.3519  141.0894  168.2389 C.ar    1  UNL1        0.0659
     19 H         138.3893  139.3436  168.8084 H       1  UNL1        0.1424
     20 H         139.3227  139.3960  167.3823 H       1  UNL1        0.1424
     21 C         143.3948  137.8561  160.8144 C.3     1  UNL1        0.1166
     22 N         144.0932  138.7797  159.8609 N.am    1  UNL1       -0.2969
     23 C         143.3573  139.9467  159.2724 C.2     1  UNL1        0.2462
     24 O         141.9229  140.1901  159.6373 O.2     1  UNL1       -0.2701
     25 H         145.0347  138.6200  159.6214 H       1  UNL1        0.1501
     26 C         144.0557  140.8703  158.3189 C.2     1  UNL1        0.0578
     27 C         144.5420  140.3556  156.9966 C.2     1  UNL1        0.0062
     28 C         145.2404  141.2792  156.0431 C.ar    1  UNL1        0.0193
     29 C         146.4891  141.9928  156.4691 C.ar    1  UNL1        0.0031
     30 C         147.1875  142.9164  155.5156 C.ar    1  UNL1        0.0207
     31 C         146.6372  143.1265  154.1362 C.ar    1  UNL1        0.0989
     32 N         145.3884  142.4129  153.7101 N.ar    1  UNL1       -0.2423
     33 C         144.6900  141.4893  154.6636 C.ar    1  UNL1        0.0988
@<TRIPOS>BOND
     1    11    12    1
     2    12    13   ar
     3    13    14   ar
     4    14    15   ar
     5    15    16    1
     6    15    17   ar
     7    17    18   ar
     8    18     7    1
     9     7     8   am
    10     8     9    2
    11     8     1    1
    12     1     2   ar
    13     2     3   ar
    14     3     4   ar
    15     4    21    1
    16    21    22    1
    17    22    23   am
    18    23    24    2
    19    23    26    1
    20    26    27    2
    21    27    28    1
    22    28    29   ar
    23    29    30   ar
    24    30    31   ar
    25    31    32   ar
    26    32    33   ar
    27     4     5   ar
    28     5     6   ar
    29    18    12   ar
    30     6     1   ar
    31    33    28   ar
    32    11    19    1
    33    11    20    1
    34     7    10    1
    35    22    25    1
@<TRIPOS>MOLECULE
*****
 33 35 0 0 0
SMALL
GASTEIGER

@<TRIPOS>ATOM
      1 C         141.5946  138.4571  162.1433 C.ar    1  UNL1        0.0537
      2 C         143.0558  138.4178  161.8064 C.ar    1  UNL1        0.0042
      3 C         143.4937  138.3612  160.3729 C.ar    1  UNL1       -0.0025
      4 C         142.4704  138.3438  159.2763 C.ar    1  UNL1       -0.0026
      5 C         141.0093  138.3831  159.6132 C.ar    1  UNL1       -0.0025
      6 C         140.5714  138.4397  161.0467 C.ar    1  UNL1        0.0042
      7 N         140.3938  139.7024  164.0817 N.am    1  UNL1       -0.2794
      8 C         141.1567  138.5137  163.5769 C.2     1  UNL1        0.2495
      9 O         141.4818  137.3815  164.5056 O.2     1  UNL1       -0.2698
     10 H         140.1805  140.4455  163.4721 H       1  UNL1        0.1552
     11 N         142.0017  141.2573  166.0810 N.pl3   1  UNL1       -0.3560
     12 C         140.7599  140.5365  166.5149 C.ar    1  UNL1        0.0553
     13 C         140.3220  140.5931  167.9484 C.ar    1  UNL1        0.0176
     14 C         139.0802  139.8722  168.3823 C.ar    1  UNL1        0.0310
     15 C         138.2762  139.0948  167.3827 C.ar    1  UNL1        0.1415
     16 F         137.0344  138.3739  167.8166 F       1  UNL1       -0.2041
     17 C         138.7141  139.0382  165.9492 C.ar    1  UNL1        0.0455
     18 C         139.9560  139.7590  165.5153 C.ar    1  UNL1        0.0659
     19 H         142.5293  141.7676  166.7371 H       1  UNL1        0.1424
     20 H         142.2891  141.2202  165.1401 H       1  UNL1        0.1424
     21 C         142.9083  138.2872  157.8427 C.3     1  UNL1        0.1166
     22 N         143.1755  136.9624  157.1919 N.am    1  UNL1       -0.2969
     23 C         142.0747  136.2480  156.4655 C.2     1  UNL1        0.2462
     24 O         140.7066  136.8584  156.3899 O.2     1  UNL1       -0.2701
     25 H         144.0734  136.5618  157.2415 H       1  UNL1        0.1501
     26 C         142.3419  134.9232  155.8147 C.2     1  UNL1        0.0578
     27 C         143.4869  134.0750  156.2829 C.2     1  UNL1        0.0062
     28 C         143.7541  132.7502  155.6321 C.ar    1  UNL1        0.0193
     29 C         143.0093  132.3612  154.3896 C.ar    1  UNL1        0.0031
     30 C         143.2765  131.0364  153.7388 C.ar    1  UNL1        0.0207
     31 C         144.2885  130.1006  154.3305 C.ar    1  UNL1        0.0989
     32 N         145.0334  130.4896  155.5731 N.ar    1  UNL1       -0.2423
     33 C         144.7662  131.8144  156.2239 C.ar    1  UNL1        0.0988
@<TRIPOS>BOND
     1    11    12    1
     2    12    13   ar
     3    13    14   ar
     4    14    15   ar
     5    15    16    1
     6    15    17   ar
     7    17    18   ar
     8    18     7    1
     9     7     8   am
    10     8     9    2
    11     8     1    1
    12     1     2   ar
    13     2     3   ar
    14     3     4   ar
    15     4    21    1
    16    21    22    1
    17    22    23   am
    18    23    24    2
    19    23    26    1
    20    26    27    2
    21    27    28    1
    22    28    29   ar
    23    29    30   ar
    24    30    31   ar
    25    31    32   ar
    26    32    33   ar
    27     4     5   ar
    28     5     6   ar
    29    18    12   ar
    30     6     1   ar
    31    33    28   ar
    32    11    19    1
    33    11    20    1
    34     7    10    1
    35    22    25    1
@<TRIPOS>MOLECULE
*****
 33 35 0 0 0
SMALL
GASTEIGER

@<TRIPOS>ATOM
      1 C         142.7166  139.3515  159.4785 C.ar    1  UNL1        0.0537
      2 C         143.7278  139.1090  160.5596 C.ar    1  UNL1        0.0042
      3 C         143.2991  138.5123  161.8673 C.ar    1  UNL1       -0.0025
      4 C         141.8592  138.1582  162.0939 C.ar    1  UNL1       -0.0026
      5 C         140.8481  138.4008  161.0128 C.ar    1  UNL1       -0.0025
      6 C         141.2768  138.9974  159.7051 C.ar    1  UNL1        0.0042
      7 N         144.6016  140.0105  157.8163 N.am    1  UNL1       -0.2794
      8 C         143.1454  139.9482  158.1707 C.2     1  UNL1        0.2495
      9 O         142.1180  140.4827  157.2174 O.2     1  UNL1       -0.2698
     10 H         145.2759  139.6598  158.4419 H       1  UNL1        0.1552
     11 N         145.2565  142.9331  157.6439 N.pl3   1  UNL1       -0.3560
     12 C         145.3578  142.0685  156.4223 C.ar    1  UNL1        0.0553
     13 C         145.7866  142.6651  155.1146 C.ar    1  UNL1        0.0176
     14 C         145.8879  141.8004  153.8931 C.ar    1  UNL1        0.0310
     15 C         145.5604  140.3392  153.9792 C.ar    1  UNL1        0.1415
     16 F         145.6617  139.4746  152.7577 F       1  UNL1       -0.2041
     17 C         145.1316  139.7426  155.2870 C.ar    1  UNL1        0.0455
     18 C         145.0304  140.6072  156.5085 C.ar    1  UNL1        0.0659
     19 H         145.4715  143.8922  157.5873 H       1  UNL1        0.1424
     20 H         144.9751  142.5415  158.5022 H       1  UNL1        0.1424
     21 C         141.4304  137.5615  163.4016 C.3     1  UNL1        0.1166
     22 N         141.1613  138.4507  164.5794 N.am    1  UNL1       -0.2969
     23 C         139.7870  139.0105  164.7980 C.2     1  UNL1        0.2462
     24 O         138.6818  138.6811  163.8388 O.2     1  UNL1       -0.2701
     25 H         141.8868  138.6668  165.2089 H       1  UNL1        0.1501
     26 C         139.5179  139.8996  165.9757 C.2     1  UNL1        0.0578
     27 C         140.5843  140.1217  167.0069 C.2     1  UNL1        0.0062
     28 C         140.3152  141.0108  168.1846 C.ar    1  UNL1        0.0193
     29 C         140.7053  142.4584  168.1361 C.ar    1  UNL1        0.0031
     30 C         140.4362  143.3475  169.3138 C.ar    1  UNL1        0.0207
     31 C         139.7770  142.7891  170.5400 C.ar    1  UNL1        0.0989
     32 N         139.3869  141.3415  170.5886 N.ar    1  UNL1       -0.2423
     33 C         139.6560  140.4523  169.4109 C.ar    1  UNL1        0.0988
@<TRIPOS>BOND
     1    11    12    1
     2    12    13   ar
     3    13    14   ar
     4    14    15   ar
     5    15    16    1
     6    15    17   ar
     7    17    18   ar
     8    18     7    1
     9     7     8   am
    10     8     9    2
    11     8     1    1
    12     1     2   ar
    13     2     3   ar
    14     3     4   ar
    15     4    21    1
    16    21    22    1
    17    22    23   am
    18    23    24    2
    19    23    26    1
    20    26    27    2
    21    27    28    1
    22    28    29   ar
    23    29    30   ar
    24    30    31   ar
    25    31    32   ar
    26    32    33   ar
    27     4     5   ar
    28     5     6   ar
    29    18    12   ar
    30     6     1   ar
    31    33    28   ar
    32    11    19    1
    33    11    20    1
    34     7    10    1
    35    22    25    1
