@<TRIPOS>MOLECULE
*****
 32 35 0 0 0
SMALL
GASTEIGER

@<TRIPOS>ATOM
      1 N         137.4934  140.6968  161.8282 N.pl3   1  UNL1       -0.2825
      2 H         136.5124  140.7045  161.7463 H       1  UNL1        0.1551
      3 C         141.2215  144.4071  160.9570 C.ar    1  UNL1        0.1554
      4 N         141.7084  144.9710  159.6551 N.ar    1  UNL1       -0.1646
      5 N         140.9497  144.3019  158.5475 N.ar    1  UNL1       -0.2487
      6 C         141.1173  144.5642  157.0802 C.3     1  UNL1        0.1537
      7 C         139.9940  143.3244  159.1649 C.ar    1  UNL1        0.0796
      8 C         138.9925  142.3836  158.5635 C.ar    1  UNL1        0.0201
      9 C         138.1590  141.5077  159.4513 C.ar    1  UNL1        0.0162
     10 C         138.3270  141.5728  160.9404 C.ar    1  UNL1        0.0506
     11 C         139.3285  142.5136  161.5418 C.ar    1  UNL1        0.0179
     12 C         140.1620  143.3894  160.6541 C.ar    1  UNL1        0.0423
     13 C         143.6654  145.3417  163.9410 C.3     1  UNL1        0.1110
     14 N         143.1782  144.9558  162.5758 N.am    1  UNL1       -0.2979
     15 C         141.7087  144.7930  162.3221 C.2     1  UNL1        0.2654
     16 O         140.7266  145.0163  163.4336 O.2     1  UNL1       -0.2684
     17 H         143.8229  144.8093  161.8463 H       1  UNL1        0.1498
     18 C         138.1546  139.8094  162.8407 C.ar    1  UNL1        0.2221
     19 N         138.5732  138.4200  162.4606 N.ar    1  UNL1       -0.2119
     20 C         139.2345  137.5325  163.4732 C.ar    1  UNL1        0.1050
     21 C         139.4771  138.0344  164.8657 C.ar    1  UNL1        0.0596
     22 C         139.0585  139.4237  165.2458 C.ar    1  UNL1        0.1682
     23 N         138.3973  140.3112  164.2333 N.ar    1  UNL1       -0.1944
     24 N         139.3011  139.9256  166.6383 N.ar    1  UNL1       -0.2108
     25 C         140.1445  141.1075  167.0151 C.ar    1  UNL1        0.1007
     26 C         140.1076  141.2461  168.5083 C.ar    1  UNL1        0.0340
     27 C         139.2414  140.1498  169.0542 C.ar    1  UNL1        0.1192
     28 N         138.7430  139.3338  167.8985 N.ar    1  UNL1       -0.1624
     29 C         140.8129  142.2964  169.3140 C.3     1  UNL1        0.1024
     30 N         142.2057  142.0492  169.8132 N.3     1  UNL1       -0.2664
     31 C         142.8605  140.7198  169.5816 C.3     1  UNL1        0.0899
     32 C         142.9436  143.1317  170.5440 C.3     1  UNL1        0.0899
@<TRIPOS>BOND
     1    13    14    1
     2    14    15   am
     3    15    16    2
     4    15     3    1
     5     3     4   ar
     6     4     5   ar
     7     5     6    1
     8     5     7   ar
     9     7     8   ar
    10     8     9   ar
    11     9    10   ar
    12    10     1    1
    13     1    18    1
    14    18    19   ar
    15    19    20   ar
    16    20    21   ar
    17    21    22   ar
    18    22    24    1
    19    24    25   ar
    20    25    26   ar
    21    26    29    1
    22    29    30    1
    23    30    31    1
    24    30    32    1
    25    26    27   ar
    26    27    28   ar
    27    22    23   ar
    28    10    11   ar
    29    11    12   ar
    30    12     3   ar
    31    12     7   ar
    32    23    18   ar
    33    28    24   ar
    34    14    17    1
    35     1     2    1
@<TRIPOS>MOLECULE
*****
 32 35 0 0 0
SMALL
GASTEIGER

@<TRIPOS>ATOM
      1 N         144.1756  143.2852  165.6276 N.pl3   1  UNL1       -0.2825
      2 H         144.7476  143.9985  165.9928 H       1  UNL1        0.1551
      3 C         142.0238  143.6550  160.7638 C.ar    1  UNL1        0.1554
      4 N         142.5319  143.1119  159.4612 N.ar    1  UNL1       -0.1646
      5 N         143.8230  142.3970  159.7292 N.ar    1  UNL1       -0.2487
      6 C         144.6748  141.7027  158.7082 C.3     1  UNL1        0.1537
      7 C         144.1130  142.4984  161.1974 C.ar    1  UNL1        0.0796
      8 C         145.2459  141.9832  162.0346 C.ar    1  UNL1        0.0201
      9 C         145.2667  142.2455  163.5114 C.ar    1  UNL1        0.0162
     10 C         144.1547  143.0230  164.1508 C.ar    1  UNL1        0.0506
     11 C         143.0218  143.5382  163.3135 C.ar    1  UNL1        0.0179
     12 C         143.0009  143.2759  161.8368 C.ar    1  UNL1        0.0423
     13 C         139.5394  146.5542  161.8470 C.3     1  UNL1        0.1110
     14 N         140.8028  145.7696  161.6516 N.am    1  UNL1       -0.2979
     15 C         140.7603  144.4396  160.9591 C.2     1  UNL1        0.2654
     16 O         139.4544  143.8944  160.4620 O.2     1  UNL1       -0.2684
     17 H         141.6600  146.1275  161.9780 H       1  UNL1        0.1498
     18 C         143.3251  142.4608  166.5479 C.ar    1  UNL1        0.2221
     19 N         143.5276  142.5438  168.0318 N.ar    1  UNL1       -0.2119
     20 C         142.6771  141.7193  168.9521 C.ar    1  UNL1        0.1050
     21 C         141.6241  140.8119  168.3884 C.ar    1  UNL1        0.0596
     22 C         141.4216  140.7289  166.9045 C.ar    1  UNL1        0.1682
     23 N         142.2721  141.5534  165.9842 N.ar    1  UNL1       -0.1944
     24 N         140.3686  139.8215  166.3408 N.ar    1  UNL1       -0.2108
     25 C         140.4149  139.1398  165.0054 C.ar    1  UNL1        0.1007
     26 C         139.1593  138.3334  164.8528 C.ar    1  UNL1        0.0340
     27 C         138.3370  138.5169  166.0939 C.ar    1  UNL1        0.1192
     28 N         139.0844  139.4366  167.0134 N.ar    1  UNL1       -0.1624
     29 C         138.7908  137.4915  163.6674 C.3     1  UNL1        0.1024
     30 N         138.8880  138.0616  162.2833 N.3     1  UNL1       -0.2664
     31 C         140.2068  138.0758  161.5689 C.3     1  UNL1        0.0899
     32 C         137.6662  138.6175  161.6136 C.3     1  UNL1        0.0899
@<TRIPOS>BOND
     1    13    14    1
     2    14    15   am
     3    15    16    2
     4    15     3    1
     5     3     4   ar
     6     4     5   ar
     7     5     6    1
     8     5     7   ar
     9     7     8   ar
    10     8     9   ar
    11     9    10   ar
    12    10     1    1
    13     1    18    1
    14    18    19   ar
    15    19    20   ar
    16    20    21   ar
    17    21    22   ar
    18    22    24    1
    19    24    25   ar
    20    25    26   ar
    21    26    29    1
    22    29    30    1
    23    30    31    1
    24    30    32    1
    25    26    27   ar
    26    27    28   ar
    27    22    23   ar
    28    10    11   ar
    29    11    12   ar
    30    12     3   ar
    31    12     7   ar
    32    23    18   ar
    33    28    24   ar
    34    14    17    1
    35     1     2    1
@<TRIPOS>MOLECULE
*****
 32 35 0 0 0
SMALL
GASTEIGER

@<TRIPOS>ATOM
      1 N         141.8381  138.1744  163.3817 N.pl3   1  UNL1       -0.2825
      2 H         142.2541  137.3475  163.7170 H       1  UNL1        0.1551
      3 C         143.5622  142.5346  160.8441 C.ar    1  UNL1        0.1554
      4 N         144.1470  142.6589  159.4683 N.ar    1  UNL1       -0.1646
      5 N         144.1849  141.2904  158.8554 N.ar    1  UNL1       -0.2487
      6 C         144.6947  140.9515  157.4860 C.3     1  UNL1        0.1537
      7 C         143.6237  140.3202  159.8523 C.ar    1  UNL1        0.0796
      8 C         143.4134  138.8360  159.7997 C.ar    1  UNL1        0.0201
      9 C         142.8182  138.1208  160.9762 C.ar    1  UNL1        0.0162
     10 C         142.4333  138.8897  162.2052 C.ar    1  UNL1        0.0506
     11 C         142.6436  140.3739  162.2578 C.ar    1  UNL1        0.0179
     12 C         143.2388  141.0892  161.0814 C.ar    1  UNL1        0.0423
     13 C         141.7257  145.1316  163.2175 C.3     1  UNL1        0.1110
     14 N         141.9480  144.0078  162.2491 N.am    1  UNL1       -0.2979
     15 C         143.3399  143.6583  161.8125 C.2     1  UNL1        0.2654
     16 O         144.5093  144.4325  162.3443 O.2     1  UNL1       -0.2684
     17 H         141.1804  143.4997  161.9000 H       1  UNL1        0.1498
     18 C         140.6091  138.7189  164.0473 C.ar    1  UNL1        0.2221
     19 N         139.3515  138.9162  163.2539 N.ar    1  UNL1       -0.2119
     20 C         138.1224  139.4607  163.9195 C.ar    1  UNL1        0.1050
     21 C         138.1510  139.8079  165.3785 C.ar    1  UNL1        0.0596
     22 C         139.4086  139.6106  166.1719 C.ar    1  UNL1        0.1682
     23 N         140.6376  139.0661  165.5063 N.ar    1  UNL1       -0.1944
     24 N         139.4373  139.9579  167.6308 N.ar    1  UNL1       -0.2108
     25 C         140.4411  140.8442  168.3067 C.ar    1  UNL1        0.1007
     26 C         140.0913  140.9138  169.7637 C.ar    1  UNL1        0.0340
     27 C         138.8713  140.0706  169.9882 C.ar    1  UNL1        0.1192
     28 N         138.4670  139.4798  168.6701 N.ar    1  UNL1       -0.1624
     29 C         140.8316  141.6904  170.8120 C.3     1  UNL1        0.1024
     30 N         141.4355  143.0209  170.4730 N.3     1  UNL1       -0.2664
     31 C         142.9194  143.2176  170.5699 C.3     1  UNL1        0.0899
     32 C         140.5555  144.1549  170.0373 C.3     1  UNL1        0.0899
@<TRIPOS>BOND
     1    13    14    1
     2    14    15   am
     3    15    16    2
     4    15     3    1
     5     3     4   ar
     6     4     5   ar
     7     5     6    1
     8     5     7   ar
     9     7     8   ar
    10     8     9   ar
    11     9    10   ar
    12    10     1    1
    13     1    18    1
    14    18    19   ar
    15    19    20   ar
    16    20    21   ar
    17    21    22   ar
    18    22    24    1
    19    24    25   ar
    20    25    26   ar
    21    26    29    1
    22    29    30    1
    23    30    31    1
    24    30    32    1
    25    26    27   ar
    26    27    28   ar
    27    22    23   ar
    28    10    11   ar
    29    11    12   ar
    30    12     3   ar
    31    12     7   ar
    32    23    18   ar
    33    28    24   ar
    34    14    17    1
    35     1     2    1
@<TRIPOS>MOLECULE
*****
 32 35 0 0 0
SMALL
GASTEIGER

@<TRIPOS>ATOM
      1 N         143.7556  144.0897  163.3402 N.pl3   1  UNL1       -0.2825
      2 H         144.6075  144.5779  163.2677 H       1  UNL1        0.1551
      3 C         142.7640  141.3555  167.8084 C.ar    1  UNL1        0.1554
      4 N         142.8866  139.8823  168.0624 N.ar    1  UNL1       -0.1646
      5 N         143.3610  139.2317  166.7969 N.ar    1  UNL1       -0.2487
      6 C         143.6195  137.7670  166.6018 C.3     1  UNL1        0.1537
      7 C         143.5316  140.3028  165.7607 C.ar    1  UNL1        0.0796
      8 C         143.9753  140.2524  164.3288 C.ar    1  UNL1        0.0201
      9 C         144.0499  141.5147  163.5219 C.ar    1  UNL1        0.0162
     10 C         143.6809  142.8273  164.1471 C.ar    1  UNL1        0.0506
     11 C         143.2373  142.8777  165.5791 C.ar    1  UNL1        0.0179
     12 C         143.1626  141.6154  166.3859 C.ar    1  UNL1        0.0423
     13 C         140.4476  143.8738  169.8191 C.3     1  UNL1        0.1110
     14 N         140.8910  142.8417  168.8251 N.am    1  UNL1       -0.2979
     15 C         142.3206  142.3877  168.8024 C.2     1  UNL1        0.2654
     16 O         143.3065  142.9660  169.7736 O.2     1  UNL1       -0.2684
     17 H         140.2438  142.4621  168.1877 H       1  UNL1        0.1498
     18 C         142.5325  144.6081  162.6438 C.ar    1  UNL1        0.2221
     19 N         141.3580  145.0847  163.4459 N.ar    1  UNL1       -0.2119
     20 C         140.1348  145.6032  162.7494 C.ar    1  UNL1        0.1050
     21 C         140.0861  145.6450  161.2508 C.ar    1  UNL1        0.0596
     22 C         141.2606  145.1683  160.4486 C.ar    1  UNL1        0.1682
     23 N         142.4837  144.6499  161.1451 N.ar    1  UNL1       -0.1944
     24 N         141.2119  145.2102  158.9500 N.ar    1  UNL1       -0.2108
     25 C         140.1432  144.6098  158.0855 C.ar    1  UNL1        0.1007
     26 C         140.4941  144.8882  156.6540 C.ar    1  UNL1        0.0340
     27 C         141.7798  145.6607  156.6338 C.ar    1  UNL1        0.1192
     28 N         142.2234  145.8597  158.0528 N.ar    1  UNL1       -0.1624
     29 C         139.6991  144.4680  155.4535 C.3     1  UNL1        0.1024
     30 N         138.4912  145.2557  155.0406 N.3     1  UNL1       -0.2664
     31 C         137.2907  144.5505  154.4823 C.3     1  UNL1        0.0899
     32 C         138.4837  146.7487  155.1860 C.3     1  UNL1        0.0899
@<TRIPOS>BOND
     1    13    14    1
     2    14    15   am
     3    15    16    2
     4    15     3    1
     5     3     4   ar
     6     4     5   ar
     7     5     6    1
     8     5     7   ar
     9     7     8   ar
    10     8     9   ar
    11     9    10   ar
    12    10     1    1
    13     1    18    1
    14    18    19   ar
    15    19    20   ar
    16    20    21   ar
    17    21    22   ar
    18    22    24    1
    19    24    25   ar
    20    25    26   ar
    21    26    29    1
    22    29    30    1
    23    30    31    1
    24    30    32    1
    25    26    27   ar
    26    27    28   ar
    27    22    23   ar
    28    10    11   ar
    29    11    12   ar
    30    12     3   ar
    31    12     7   ar
    32    23    18   ar
    33    28    24   ar
    34    14    17    1
    35     1     2    1
@<TRIPOS>MOLECULE
*****
 32 35 0 0 0
SMALL
GASTEIGER

@<TRIPOS>ATOM
      1 N         138.1474  141.7880  160.3253 N.pl3   1  UNL1       -0.2825
      2 H         137.3943  142.0189  159.7348 H       1  UNL1        0.1551
      3 C         143.1784  140.0317  160.1565 C.ar    1  UNL1        0.1554
      4 N         143.7578  138.8969  159.3650 N.ar    1  UNL1       -0.1646
      5 N         142.6501  138.2752  158.5673 N.ar    1  UNL1       -0.2487
      6 C         142.7830  137.1078  157.6348 C.3     1  UNL1        0.1537
      7 C         141.3861  139.0257  158.8658 C.ar    1  UNL1        0.0796
      8 C         139.9801  138.8608  158.3701 C.ar    1  UNL1        0.0201
      9 C         138.9005  139.7816  158.8566 C.ar    1  UNL1        0.0162
     10 C         139.2270  140.8672  159.8388 C.ar    1  UNL1        0.0506
     11 C         140.6331  141.0321  160.3345 C.ar    1  UNL1        0.0179
     12 C         141.7126  140.1113  159.8480 C.ar    1  UNL1        0.0423
     13 C         145.4506  141.2400  163.1778 C.3     1  UNL1        0.1110
     14 N         144.6966  140.3424  162.2420 N.am    1  UNL1       -0.2979
     15 C         143.9324  140.9294  161.0923 C.2     1  UNL1        0.2654
     16 O         143.9223  142.4140  160.8786 O.2     1  UNL1       -0.2684
     17 H         144.7032  139.3679  162.3823 H       1  UNL1        0.1498
     18 C         138.2152  142.3569  161.7116 C.ar    1  UNL1        0.2221
     19 N         138.0306  143.8297  161.9278 N.ar    1  UNL1       -0.2119
     20 C         138.0984  144.3985  163.3141 C.ar    1  UNL1        0.1050
     21 C         138.3509  143.4946  164.4842 C.ar    1  UNL1        0.0596
     22 C         138.5355  142.0218  164.2680 C.ar    1  UNL1        0.1682
     23 N         138.4677  141.4529  162.8817 N.ar    1  UNL1       -0.1944
     24 N         138.7879  141.1178  165.4381 N.ar    1  UNL1       -0.2108
     25 C         139.7235  141.3917  166.5781 C.ar    1  UNL1        0.1007
     26 C         139.6629  140.2245  167.5182 C.ar    1  UNL1        0.0340
     27 C         138.6899  139.2291  166.9591 C.ar    1  UNL1        0.1192
     28 N         138.1491  139.7813  165.6735 N.ar    1  UNL1       -0.1624
     29 C         140.4391  140.0782  168.7934 C.3     1  UNL1        0.1024
     30 N         141.8556  139.5861  168.7570 N.3     1  UNL1       -0.2664
     31 C         142.5337  139.1582  170.0247 C.3     1  UNL1        0.0899
     32 C         142.5940  139.5218  167.4529 C.3     1  UNL1        0.0899
@<TRIPOS>BOND
     1    13    14    1
     2    14    15   am
     3    15    16    2
     4    15     3    1
     5     3     4   ar
     6     4     5   ar
     7     5     6    1
     8     5     7   ar
     9     7     8   ar
    10     8     9   ar
    11     9    10   ar
    12    10     1    1
    13     1    18    1
    14    18    19   ar
    15    19    20   ar
    16    20    21   ar
    17    21    22   ar
    18    22    24    1
    19    24    25   ar
    20    25    26   ar
    21    26    29    1
    22    29    30    1
    23    30    31    1
    24    30    32    1
    25    26    27   ar
    26    27    28   ar
    27    22    23   ar
    28    10    11   ar
    29    11    12   ar
    30    12     3   ar
    31    12     7   ar
    32    23    18   ar
    33    28    24   ar
    34    14    17    1
    35     1     2    1
@<TRIPOS>MOLECULE
*****
 32 35 0 0 0
SMALL
GASTEIGER

@<TRIPOS>ATOM
      1 N         138.0846  139.6640  162.4133 N.pl3   1  UNL1       -0.2825
      2 H         137.1557  139.4835  162.6850 H       1  UNL1        0.1551
      3 C         139.8572  144.2491  160.3497 C.ar    1  UNL1        0.1554
      4 N         139.8892  144.6914  158.9168 N.ar    1  UNL1       -0.1646
      5 N         139.3127  143.5891  158.0785 N.ar    1  UNL1       -0.2487
      6 C         139.1525  143.6072  156.5872 C.3     1  UNL1        0.1537
      7 C         138.9244  142.4656  158.9934 C.ar    1  UNL1        0.0796
      8 C         138.3079  141.1239  158.7297 C.ar    1  UNL1        0.0201
      9 C         138.0280  140.1900  159.8696 C.ar    1  UNL1        0.0162
     10 C         138.3646  140.5979  161.2733 C.ar    1  UNL1        0.0506
     11 C         138.9811  141.9397  161.5370 C.ar    1  UNL1        0.0179
     12 C         139.2610  142.8735  160.3971 C.ar    1  UNL1        0.0423
     13 C         141.9308  145.3099  163.5631 C.3     1  UNL1        0.1110
     14 N         141.4507  144.5160  162.3844 N.am    1  UNL1       -0.2979
     15 C         140.3373  145.0430  161.5284 C.2     1  UNL1        0.2654
     16 O         139.7040  146.3638  161.8512 O.2     1  UNL1       -0.2684
     17 H         141.8664  143.6491  162.1726 H       1  UNL1        0.1498
     18 C         139.2198  139.0051  163.1392 C.ar    1  UNL1        0.2221
     19 N         139.9117  137.8208  162.5320 N.ar    1  UNL1       -0.2119
     20 C         141.0470  137.1619  163.2580 C.ar    1  UNL1        0.1050
     21 C         141.4904  137.6873  164.5911 C.ar    1  UNL1        0.0596
     22 C         140.7986  138.8716  165.1983 C.ar    1  UNL1        0.1682
     23 N         139.6633  139.5305  164.4724 N.ar    1  UNL1       -0.1944
     24 N         141.2420  139.3971  166.5314 N.ar    1  UNL1       -0.2108
     25 C         140.4238  140.2418  167.4627 C.ar    1  UNL1        0.1007
     26 C         141.2576  140.5368  168.6742 C.ar    1  UNL1        0.0340
     27 C         142.5910  139.8745  168.4916 C.ar    1  UNL1        0.1192
     28 N         142.5814  139.1701  167.1674 N.ar    1  UNL1       -0.1624
     29 C         140.8325  141.3512  169.8599 C.3     1  UNL1        0.1024
     30 N         141.3647  142.7415  170.0446 N.3     1  UNL1       -0.2664
     31 C         140.4596  143.9224  169.8543 C.3     1  UNL1        0.0899
     32 C         142.8019  142.9508  170.4197 C.3     1  UNL1        0.0899
@<TRIPOS>BOND
     1    13    14    1
     2    14    15   am
     3    15    16    2
     4    15     3    1
     5     3     4   ar
     6     4     5   ar
     7     5     6    1
     8     5     7   ar
     9     7     8   ar
    10     8     9   ar
    11     9    10   ar
    12    10     1    1
    13     1    18    1
    14    18    19   ar
    15    19    20   ar
    16    20    21   ar
    17    21    22   ar
    18    22    24    1
    19    24    25   ar
    20    25    26   ar
    21    26    29    1
    22    29    30    1
    23    30    31    1
    24    30    32    1
    25    26    27   ar
    26    27    28   ar
    27    22    23   ar
    28    10    11   ar
    29    11    12   ar
    30    12     3   ar
    31    12     7   ar
    32    23    18   ar
    33    28    24   ar
    34    14    17    1
    35     1     2    1
@<TRIPOS>MOLECULE
*****
 32 35 0 0 0
SMALL
GASTEIGER

@<TRIPOS>ATOM
      1 N         141.3239  144.5343  161.7570 N.pl3   1  UNL1       -0.2825
      2 H         141.7034  145.4386  161.8432 H       1  UNL1        0.1551
      3 C         143.8105  139.9757  160.5488 C.ar    1  UNL1        0.1554
      4 N         144.2203  139.4494  159.2052 N.ar    1  UNL1       -0.1646
      5 N         143.8063  140.4517  158.1689 N.ar    1  UNL1       -0.2487
      6 C         144.0204  140.3297  156.6893 C.3     1  UNL1        0.1537
      7 C         143.1407  141.5974  158.8719 C.ar    1  UNL1        0.0796
      8 C         142.5325  142.8705  158.3627 C.ar    1  UNL1        0.0201
      9 C         141.9269  143.8495  159.3244 C.ar    1  UNL1        0.0162
     10 C         141.9295  143.5553  160.7953 C.ar    1  UNL1        0.0506
     11 C         142.5376  142.2822  161.3045 C.ar    1  UNL1        0.0179
     12 C         143.1432  141.3032  160.3428 C.ar    1  UNL1        0.0423
     13 C         144.9888  139.3199  164.2813 C.3     1  UNL1        0.1110
     14 N         144.7698  140.0015  162.9632 N.am    1  UNL1       -0.2979
     15 C         144.0295  139.2941  161.8669 C.2     1  UNL1        0.2654
     16 O         143.5081  137.9054  162.0889 O.2     1  UNL1       -0.2684
     17 H         145.1120  140.9130  162.8175 H       1  UNL1        0.1498
     18 C         140.1400  144.1355  162.5873 C.ar    1  UNL1        0.2221
     19 N         138.8088  144.7872  162.3572 N.ar    1  UNL1       -0.2119
     20 C         137.6249  144.3883  163.1875 C.ar    1  UNL1        0.1050
     21 C         137.7723  143.3378  164.2480 C.ar    1  UNL1        0.0596
     22 C         139.1036  142.6861  164.4781 C.ar    1  UNL1        0.1682
     23 N         140.2874  143.0849  163.6478 N.ar    1  UNL1       -0.1944
     24 N         139.2510  141.6355  165.5385 N.ar    1  UNL1       -0.2108
     25 C         140.0489  141.7642  166.8022 C.ar    1  UNL1        0.1007
     26 C         139.9175  140.4800  167.5662 C.ar    1  UNL1        0.0340
     27 C         139.0383  139.5577  166.7746 C.ar    1  UNL1        0.1192
     28 N         138.6265  140.2718  165.5215 N.ar    1  UNL1       -0.1624
     29 C         140.5535  140.1722  168.8893 C.3     1  UNL1        0.1024
     30 N         142.0005  139.7824  168.9534 N.3     1  UNL1       -0.2664
     31 C         142.7058  139.3111  167.7162 C.3     1  UNL1        0.0899
     32 C         142.7424  139.8641  170.2546 C.3     1  UNL1        0.0899
@<TRIPOS>BOND
     1    13    14    1
     2    14    15   am
     3    15    16    2
     4    15     3    1
     5     3     4   ar
     6     4     5   ar
     7     5     6    1
     8     5     7   ar
     9     7     8   ar
    10     8     9   ar
    11     9    10   ar
    12    10     1    1
    13     1    18    1
    14    18    19   ar
    15    19    20   ar
    16    20    21   ar
    17    21    22   ar
    18    22    24    1
    19    24    25   ar
    20    25    26   ar
    21    26    29    1
    22    29    30    1
    23    30    31    1
    24    30    32    1
    25    26    27   ar
    26    27    28   ar
    27    22    23   ar
    28    10    11   ar
    29    11    12   ar
    30    12     3   ar
    31    12     7   ar
    32    23    18   ar
    33    28    24   ar
    34    14    17    1
    35     1     2    1
@<TRIPOS>MOLECULE
*****
 32 35 0 0 0
SMALL
GASTEIGER

@<TRIPOS>ATOM
      1 N         141.5133  145.3957  160.4681 N.pl3   1  UNL1       -0.2825
      2 H         142.3255  145.9361  160.6007 H       1  UNL1        0.1551
      3 C         139.6268  146.2955  155.5635 C.ar    1  UNL1        0.1554
      4 N         139.4242  145.3273  154.4359 N.ar    1  UNL1       -0.1646
      5 N         139.8554  143.9702  154.9072 N.ar    1  UNL1       -0.2487
      6 C         139.8232  142.7056  154.1011 C.3     1  UNL1        0.1537
      7 C         140.3245  144.0996  156.3261 C.ar    1  UNL1        0.0796
      8 C         140.8621  143.0944  157.3011 C.ar    1  UNL1        0.0201
      9 C         141.2583  143.5265  158.6817 C.ar    1  UNL1        0.0162
     10 C         141.1170  144.9636  159.0874 C.ar    1  UNL1        0.0506
     11 C         140.5795  145.9688  158.1124 C.ar    1  UNL1        0.0179
     12 C         140.1832  145.5367  156.7317 C.ar    1  UNL1        0.0423
     13 C         138.3177  149.8817  156.6480 C.3     1  UNL1        0.1110
     14 N         138.6187  148.4126  156.6825 N.am    1  UNL1       -0.2979
     15 C         139.3258  147.7646  155.5291 C.2     1  UNL1        0.2654
     16 O         139.7319  148.5858  154.3414 O.2     1  UNL1       -0.2684
     17 H         138.3522  147.8737  157.4621 H       1  UNL1        0.1498
     18 C         140.6723  145.0042  161.6468 C.ar    1  UNL1        0.2221
     19 N         139.1999  145.2907  161.6457 N.ar    1  UNL1       -0.2119
     20 C         138.3588  144.8992  162.8245 C.ar    1  UNL1        0.1050
     21 C         138.9901  144.2213  164.0042 C.ar    1  UNL1        0.0596
     22 C         140.4625  143.9348  164.0053 C.ar    1  UNL1        0.1682
     23 N         141.3036  144.3263  162.8266 N.ar    1  UNL1       -0.1944
     24 N         141.0938  143.2569  165.1850 N.ar    1  UNL1       -0.2108
     25 C         140.3785  142.7766  166.4129 C.ar    1  UNL1        0.1007
     26 C         141.3939  142.1631  167.3308 C.ar    1  UNL1        0.0340
     27 C         142.7368  142.2643  166.6702 C.ar    1  UNL1        0.1192
     28 N         142.5514  142.9403  165.3441 N.ar    1  UNL1       -0.1624
     29 C         141.1153  141.5553  168.6735 C.3     1  UNL1        0.1024
     30 N         141.1774  142.4042  169.9086 N.3     1  UNL1       -0.2664
     31 C         140.6097  143.7926  169.8937 C.3     1  UNL1        0.0899
     32 C         141.8072  141.8648  171.1586 C.3     1  UNL1        0.0899
@<TRIPOS>BOND
     1    13    14    1
     2    14    15   am
     3    15    16    2
     4    15     3    1
     5     3     4   ar
     6     4     5   ar
     7     5     6    1
     8     5     7   ar
     9     7     8   ar
    10     8     9   ar
    11     9    10   ar
    12    10     1    1
    13     1    18    1
    14    18    19   ar
    15    19    20   ar
    16    20    21   ar
    17    21    22   ar
    18    22    24    1
    19    24    25   ar
    20    25    26   ar
    21    26    29    1
    22    29    30    1
    23    30    31    1
    24    30    32    1
    25    26    27   ar
    26    27    28   ar
    27    22    23   ar
    28    10    11   ar
    29    11    12   ar
    30    12     3   ar
    31    12     7   ar
    32    23    18   ar
    33    28    24   ar
    34    14    17    1
    35     1     2    1
@<TRIPOS>MOLECULE
*****
 32 35 0 0 0
SMALL
GASTEIGER

@<TRIPOS>ATOM
      1 N         144.0284  140.8496  161.6582 N.pl3   1  UNL1       -0.2825
      2 H         145.0099  140.7825  161.6215 H       1  UNL1        0.1551
      3 C         140.1736  144.4774  161.0224 C.ar    1  UNL1        0.1554
      4 N         139.9359  145.4133  159.8746 N.ar    1  UNL1       -0.1646
      5 N         141.0076  145.1749  158.8525 N.ar    1  UNL1       -0.2487
      6 C         141.1536  145.8936  157.5440 C.3     1  UNL1        0.1537
      7 C         141.9077  144.0916  159.3687 C.ar    1  UNL1        0.0796
      8 C         143.1300  143.4421  158.7908 C.ar    1  UNL1        0.0201
      9 C         143.8369  142.3615  159.5539 C.ar    1  UNL1        0.0162
     10 C         143.3215  141.9303  160.8950 C.ar    1  UNL1        0.0506
     11 C         142.0991  142.5799  161.4729 C.ar    1  UNL1        0.0179
     12 C         141.3923  143.6605  160.7097 C.ar    1  UNL1        0.0423
     13 C         139.0587  144.7370  164.8224 C.3     1  UNL1        0.1110
     14 N         139.8931  144.8383  163.5800 N.am    1  UNL1       -0.2979
     15 C         139.3393  144.3760  162.2648 C.2     1  UNL1        0.2654
     16 O         137.9511  143.8124  162.1921 O.2     1  UNL1       -0.2684
     17 H         140.8042  145.2082  163.6278 H       1  UNL1        0.1498
     18 C         143.2399  139.8712  162.4772 C.ar    1  UNL1        0.2221
     19 N         142.6094  138.6794  161.8200 N.ar    1  UNL1       -0.2119
     20 C         141.8208  137.7009  162.6392 C.ar    1  UNL1        0.1050
     21 C         141.6629  137.9144  164.1155 C.ar    1  UNL1        0.0596
     22 C         142.2934  139.1062  164.7727 C.ar    1  UNL1        0.1682
     23 N         143.0819  140.0846  163.9536 N.ar    1  UNL1       -0.1944
     24 N         142.1354  139.3196  166.2489 N.ar    1  UNL1       -0.2108
     25 C         140.9765  139.9917  166.9236 C.ar    1  UNL1        0.1007
     26 C         141.2334  139.9859  168.4014 C.ar    1  UNL1        0.0340
     27 C         142.5513  139.3102  168.6401 C.ar    1  UNL1        0.1192
     28 N         143.1087  138.8985  167.3098 N.ar    1  UNL1       -0.1624
     29 C         140.3311  140.5557  169.4555 C.3     1  UNL1        0.1024
     30 N         140.6264  141.9017  170.0480 N.3     1  UNL1       -0.2664
     31 C         140.3872  143.1444  169.2429 C.3     1  UNL1        0.0899
     32 C         141.1610  142.0049  171.4458 C.3     1  UNL1        0.0899
@<TRIPOS>BOND
     1    13    14    1
     2    14    15   am
     3    15    16    2
     4    15     3    1
     5     3     4   ar
     6     4     5   ar
     7     5     6    1
     8     5     7   ar
     9     7     8   ar
    10     8     9   ar
    11     9    10   ar
    12    10     1    1
    13     1    18    1
    14    18    19   ar
    15    19    20   ar
    16    20    21   ar
    17    21    22   ar
    18    22    24    1
    19    24    25   ar
    20    25    26   ar
    21    26    29    1
    22    29    30    1
    23    30    31    1
    24    30    32    1
    25    26    27   ar
    26    27    28   ar
    27    22    23   ar
    28    10    11   ar
    29    11    12   ar
    30    12     3   ar
    31    12     7   ar
    32    23    18   ar
    33    28    24   ar
    34    14    17    1
    35     1     2    1
