@<TRIPOS>MOLECULE
*****
 32 36 0 0 0
SMALL
GASTEIGER

@<TRIPOS>ATOM
      1 C         143.3873  134.4450  156.3502 C.ar    1  UNL1        0.1663
      2 N         142.7087  135.3695  157.3170 N.ar    1  UNL1       -0.2222
      3 C         143.0812  136.7761  156.9526 C.ar    1  UNL1        0.1305
      4 C         142.7102  138.1000  157.5522 C.ar    1  UNL1        0.0765
      5 C         143.2481  139.3688  156.9597 C.ar    1  UNL1        0.0664
      6 BR        142.8770  140.6928  157.5594 Br      1  UNL1       -0.0461
      7 C         144.1569  139.3136  155.7678 C.ar    1  UNL1        0.0816
      8 N         144.5279  137.9897  155.1682 N.ar    1  UNL1       -0.3357
      9 C         143.9900  136.7209  155.7606 C.ar    1  UNL1        0.1613
     10 N         144.1793  135.2802  155.3883 N.ar    1  UNL1       -0.2081
     11 H         145.1244  137.9535  154.3858 H       1  UNL1        0.1675
     12 C         145.3518  132.3920  157.9551 C.3     1  UNL1        0.0541
     13 C         144.1940  132.0045  157.0837 C.ar    1  UNL1        0.0830
     14 N         143.7359  130.6052  156.7971 N.ar    1  UNL1       -0.1738
     15 N         142.5497  130.6840  155.8822 N.ar    1  UNL1       -0.2531
     16 C         141.7747  129.5194  155.3412 C.3     1  UNL1        0.1533
     17 C         142.2748  132.1321  155.6035 C.ar    1  UNL1        0.0601
     18 C         141.1765  132.6697  154.7347 C.3     1  UNL1        0.0518
     19 C         143.2910  132.9481  156.3460 C.ar    1  UNL1        0.0642
     20 N         141.8013  138.1553  158.7443 N.pl3   1  UNL1       -0.3030
     21 C         140.3200  138.2924  158.5523 C.3     1  UNL1        0.1082
     22 C         139.4112  138.3476  159.7444 C.3     1  UNL1        0.0941
     23 N         139.9837  138.2658  161.1284 N.3     1  UNL1       -0.2659
     24 C         141.4650  138.1286  161.3204 C.3     1  UNL1        0.0941
     25 C         142.3738  138.0734  160.1283 C.3     1  UNL1        0.1082
     26 C         139.0749  138.3210  162.3205 C.3     1  UNL1        0.1008
     27 C         138.5975  139.6452  162.8388 C.ar    1  UNL1        0.0130
     28 C         138.9700  140.0874  164.2229 C.ar    1  UNL1        0.0002
     29 C         138.4926  141.4115  164.7413 C.ar    1  UNL1        0.0204
     30 C         137.6426  142.2935  163.8755 C.ar    1  UNL1        0.0989
     31 N         137.2700  141.8513  162.4915 N.ar    1  UNL1       -0.2426
     32 C         137.7474  140.5272  161.9731 C.ar    1  UNL1        0.0959
@<TRIPOS>BOND
     1    12    13    1
     2    13    14   ar
     3    14    15   ar
     4    15    16    1
     5    15    17   ar
     6    17    18    1
     7    17    19   ar
     8    19     1    1
     9     1     2   ar
    10     2     3   ar
    11     3     4   ar
    12     4    20    1
    13    20    21    1
    14    21    22    1
    15    22    23    1
    16    23    26    1
    17    26    27    1
    18    27    28   ar
    19    28    29   ar
    20    29    30   ar
    21    30    31   ar
    22    31    32   ar
    23    23    24    1
    24    24    25    1
    25     4     5   ar
    26     5     6    1
    27     5     7   ar
    28     7     8   ar
    29     8     9   ar
    30     9    10   ar
    31    19    13   ar
    32    10     1   ar
    33     9     3    1
    34    25    20    1
    35    32    27   ar
    36     8    11    1
@<TRIPOS>MOLECULE
*****
 32 36 0 0 0
SMALL
GASTEIGER

@<TRIPOS>ATOM
      1 C         143.3795  134.4297  156.3776 C.ar    1  UNL1        0.1663
      2 N         142.6985  135.3704  157.3270 N.ar    1  UNL1       -0.2222
      3 C         143.0605  136.7711  156.9309 C.ar    1  UNL1        0.1305
      4 C         142.6832  138.1053  157.5034 C.ar    1  UNL1        0.0765
      5 C         143.2106  139.3644  156.8817 C.ar    1  UNL1        0.0664
      6 BR        142.8333  140.6986  157.4542 Br      1  UNL1       -0.0461
      7 C         144.1152  139.2894  155.6876 C.ar    1  UNL1        0.0816
      8 N         144.4925  137.9553  155.1151 N.ar    1  UNL1       -0.3357
      9 C         143.9651  136.6962  155.7368 C.ar    1  UNL1        0.1613
     10 N         144.1623  135.2490  155.3948 N.ar    1  UNL1       -0.2081
     11 H         145.0862  137.9061  154.3313 H       1  UNL1        0.1675
     12 C         141.1562  132.6073  154.8332 C.3     1  UNL1        0.0541
     13 C         142.2709  132.0949  155.6961 C.ar    1  UNL1        0.0830
     14 N         142.5594  130.6547  156.0006 N.ar    1  UNL1       -0.1738
     15 N         143.7597  130.6022  156.8987 N.ar    1  UNL1       -0.2531
     16 C         144.3951  129.3602  157.4495 C.3     1  UNL1        0.1533
     17 C         144.2130  132.0100  157.1493 C.ar    1  UNL1        0.0601
     18 C         145.3813  132.4228  157.9946 C.3     1  UNL1        0.0518
     19 C         143.2929  132.9325  156.4060 C.ar    1  UNL1        0.0642
     20 N         141.7785  138.1803  158.6976 N.pl3   1  UNL1       -0.3030
     21 C         142.3547  138.1083  160.0807 C.3     1  UNL1        0.1082
     22 C         141.4499  138.1833  161.2748 C.3     1  UNL1        0.0941
     23 N         139.9692  138.3305  161.0858 N.3     1  UNL1       -0.2659
     24 C         139.3931  138.4025  159.7027 C.3     1  UNL1        0.0941
     25 C         140.2978  138.3275  158.5086 C.3     1  UNL1        0.1082
     26 C         139.0645  138.4056  162.2799 C.3     1  UNL1        0.1008
     27 C         138.6082  139.7395  162.7924 C.ar    1  UNL1        0.0130
     28 C         138.9941  140.1849  164.1718 C.ar    1  UNL1        0.0002
     29 C         138.5378  141.5187  164.6844 C.ar    1  UNL1        0.0204
     30 C         137.6956  142.4071  163.8176 C.ar    1  UNL1        0.0989
     31 N         137.3097  141.9616  162.4382 N.ar    1  UNL1       -0.2426
     32 C         137.7659  140.6278  161.9256 C.ar    1  UNL1        0.0959
@<TRIPOS>BOND
     1    12    13    1
     2    13    14   ar
     3    14    15   ar
     4    15    16    1
     5    15    17   ar
     6    17    18    1
     7    17    19   ar
     8    19     1    1
     9     1     2   ar
    10     2     3   ar
    11     3     4   ar
    12     4    20    1
    13    20    21    1
    14    21    22    1
    15    22    23    1
    16    23    26    1
    17    26    27    1
    18    27    28   ar
    19    28    29   ar
    20    29    30   ar
    21    30    31   ar
    22    31    32   ar
    23    23    24    1
    24    24    25    1
    25     4     5   ar
    26     5     6    1
    27     5     7   ar
    28     7     8   ar
    29     8     9   ar
    30     9    10   ar
    31    19    13   ar
    32    10     1   ar
    33     9     3    1
    34    25    20    1
    35    32    27   ar
    36     8    11    1
@<TRIPOS>MOLECULE
*****
 32 36 0 0 0
SMALL
GASTEIGER

@<TRIPOS>ATOM
      1 C         143.4155  135.6595  155.9002 C.ar    1  UNL1        0.1663
      2 N         142.6189  136.3537  156.9649 N.ar    1  UNL1       -0.2222
      3 C         143.0805  137.7792  157.0337 C.ar    1  UNL1        0.1305
      4 C         142.6554  138.9313  157.8951 C.ar    1  UNL1        0.0765
      5 C         143.3122  140.2703  157.7343 C.ar    1  UNL1        0.0664
      6 BR        142.8872  141.4225  158.5957 Br      1  UNL1       -0.0461
      7 C         144.3939  140.4572  156.7121 C.ar    1  UNL1        0.0816
      8 N         144.8190  139.3051  155.8508 N.ar    1  UNL1       -0.3357
      9 C         144.1623  137.9661  156.0116 C.ar    1  UNL1        0.1613
     10 N         144.3693  136.6560  155.3110 N.ar    1  UNL1       -0.2081
     11 H         145.5290  139.4277  155.1799 H       1  UNL1        0.1675
     12 C         141.9709  134.5555  153.1903 C.3     1  UNL1        0.0541
     13 C         142.6177  133.7138  154.2501 C.ar    1  UNL1        0.0830
     14 N         142.7141  132.2169  154.2503 N.ar    1  UNL1       -0.1738
     15 N         143.4376  131.7992  155.4962 N.ar    1  UNL1       -0.2531
     16 C         143.7547  130.3902  155.9011 C.3     1  UNL1        0.1533
     17 C         143.7885  133.0380  156.2659 C.ar    1  UNL1        0.0601
     18 C         144.5179  133.0852  157.5757 C.3     1  UNL1        0.0518
     19 C         143.2817  134.2213  155.4957 C.ar    1  UNL1        0.0642
     20 N         141.5736  138.7445  158.9173 N.pl3   1  UNL1       -0.3030
     21 C         140.1444  139.0210  158.5558 C.3     1  UNL1        0.1082
     22 C         139.0626  138.8342  159.5781 C.3     1  UNL1        0.0941
     23 N         139.4102  138.3710  160.9618 N.3     1  UNL1       -0.2659
     24 C         140.8395  138.0945  161.3233 C.3     1  UNL1        0.0941
     25 C         141.9212  138.2813  160.3010 C.3     1  UNL1        0.1082
     26 C         138.3285  138.1842  161.9840 C.3     1  UNL1        0.1008
     27 C         138.4703  138.7959  163.3464 C.ar    1  UNL1        0.0130
     28 C         138.9464  137.9606  164.4977 C.ar    1  UNL1        0.0002
     29 C         139.0882  138.5722  165.8599 C.ar    1  UNL1        0.0204
     30 C         138.7538  140.0192  166.0708 C.ar    1  UNL1        0.0989
     31 N         138.2776  140.8545  164.9195 N.ar    1  UNL1       -0.2426
     32 C         138.1359  140.2428  163.5572 C.ar    1  UNL1        0.0959
@<TRIPOS>BOND
     1    12    13    1
     2    13    14   ar
     3    14    15   ar
     4    15    16    1
     5    15    17   ar
     6    17    18    1
     7    17    19   ar
     8    19     1    1
     9     1     2   ar
    10     2     3   ar
    11     3     4   ar
    12     4    20    1
    13    20    21    1
    14    21    22    1
    15    22    23    1
    16    23    26    1
    17    26    27    1
    18    27    28   ar
    19    28    29   ar
    20    29    30   ar
    21    30    31   ar
    22    31    32   ar
    23    23    24    1
    24    24    25    1
    25     4     5   ar
    26     5     6    1
    27     5     7   ar
    28     7     8   ar
    29     8     9   ar
    30     9    10   ar
    31    19    13   ar
    32    10     1   ar
    33     9     3    1
    34    25    20    1
    35    32    27   ar
    36     8    11    1
@<TRIPOS>MOLECULE
*****
 32 36 0 0 0
SMALL
GASTEIGER

@<TRIPOS>ATOM
      1 C         142.8394  136.3994  156.6237 C.ar    1  UNL1        0.1663
      2 N         142.8273  137.1048  157.9474 N.ar    1  UNL1       -0.2222
      3 C         143.1873  138.5415  157.7103 C.ar    1  UNL1        0.1305
      4 C         143.3318  139.7071  158.6433 C.ar    1  UNL1        0.0765
      5 C         143.7109  141.0553  158.1060 C.ar    1  UNL1        0.0664
      6 BR        143.8554  142.2210  159.0390 Br      1  UNL1       -0.0461
      7 C         143.9455  141.2379  156.6358 C.ar    1  UNL1        0.0816
      8 N         143.8010  140.0723  155.7028 N.ar    1  UNL1       -0.3357
      9 C         143.4219  138.7241  156.2401 C.ar    1  UNL1        0.1613
     10 N         143.2069  137.4002  155.5685 N.ar    1  UNL1       -0.2081
     11 H         143.9550  140.1921  154.7379 H       1  UNL1        0.1675
     12 C         144.0791  133.8937  158.3072 C.3     1  UNL1        0.0541
     13 C         143.1069  133.7964  157.1691 C.ar    1  UNL1        0.0830
     14 N         142.5339  132.5301  156.6049 N.ar    1  UNL1       -0.1738
     15 N         141.6099  132.8992  155.4824 N.ar    1  UNL1       -0.2531
     16 C         140.8223  131.9420  154.6378 C.3     1  UNL1        0.1533
     17 C         141.6119  134.3937  155.3528 C.ar    1  UNL1        0.0601
     18 C         140.8265  135.1932  154.3559 C.3     1  UNL1        0.0518
     19 C         142.5371  134.9481  156.3952 C.ar    1  UNL1        0.0642
     20 N         143.0972  139.5246  160.1136 N.pl3   1  UNL1       -0.3030
     21 C         144.1533  138.8892  160.9684 C.3     1  UNL1        0.1082
     22 C         143.9186  138.7067  162.4387 C.3     1  UNL1        0.0941
     23 N         142.6278  139.1597  163.0540 N.3     1  UNL1       -0.2659
     24 C         141.5717  139.7951  162.1992 C.3     1  UNL1        0.0941
     25 C         141.8064  139.9776  160.7290 C.3     1  UNL1        0.1082
     26 C         142.3931  138.9772  164.5243 C.3     1  UNL1        0.1008
     27 C         140.9932  138.8749  165.0533 C.ar    1  UNL1        0.0130
     28 C         140.1709  137.6532  164.7677 C.ar    1  UNL1        0.0002
     29 C         138.7711  137.5508  165.2967 C.ar    1  UNL1        0.0204
     30 C         138.1934  138.6700  166.1113 C.ar    1  UNL1        0.0989
     31 N         139.0156  139.8917  166.3969 N.ar    1  UNL1       -0.2426
     32 C         140.4155  139.9941  165.8679 C.ar    1  UNL1        0.0959
@<TRIPOS>BOND
     1    12    13    1
     2    13    14   ar
     3    14    15   ar
     4    15    16    1
     5    15    17   ar
     6    17    18    1
     7    17    19   ar
     8    19     1    1
     9     1     2   ar
    10     2     3   ar
    11     3     4   ar
    12     4    20    1
    13    20    21    1
    14    21    22    1
    15    22    23    1
    16    23    26    1
    17    26    27    1
    18    27    28   ar
    19    28    29   ar
    20    29    30   ar
    21    30    31   ar
    22    31    32   ar
    23    23    24    1
    24    24    25    1
    25     4     5   ar
    26     5     6    1
    27     5     7   ar
    28     7     8   ar
    29     8     9   ar
    30     9    10   ar
    31    19    13   ar
    32    10     1   ar
    33     9     3    1
    34    25    20    1
    35    32    27   ar
    36     8    11    1
@<TRIPOS>MOLECULE
*****
 32 36 0 0 0
SMALL
GASTEIGER

@<TRIPOS>ATOM
      1 C         143.2181  136.3649  155.9819 C.ar    1  UNL1        0.1663
      2 N         142.4735  137.3160  156.8713 N.ar    1  UNL1       -0.2222
      3 C         143.2448  138.6014  156.9241 C.ar    1  UNL1        0.1305
      4 C         142.9928  139.8943  157.6417 C.ar    1  UNL1        0.0765
      5 C         143.9621  141.0306  157.5025 C.ar    1  UNL1        0.0664
      6 BR        143.7101  142.3235  158.2201 Br      1  UNL1       -0.0461
      7 C         145.1833  140.8739  156.6458 C.ar    1  UNL1        0.0816
      8 N         145.4353  139.5811  155.9282 N.ar    1  UNL1       -0.3357
      9 C         144.4660  138.4448  156.0674 C.ar    1  UNL1        0.1613
     10 N         144.4495  137.0625  155.4850 N.ar    1  UNL1       -0.2081
     11 H         146.2368  139.4783  155.3659 H       1  UNL1        0.1675
     12 C         143.7001  133.7279  157.8430 C.3     1  UNL1        0.0541
     13 C         143.0256  133.7504  156.5034 C.ar    1  UNL1        0.0830
     14 N         142.4541  132.5646  155.7841 N.ar    1  UNL1       -0.1738
     15 N         141.8794  133.0437  154.4841 N.ar    1  UNL1       -0.2531
     16 C         141.2066  132.1908  153.4499 C.3     1  UNL1        0.1533
     17 C         142.0956  134.5258  154.3999 C.ar    1  UNL1        0.0601
     18 C         141.6770  135.4149  153.2667 C.3     1  UNL1        0.0518
     19 C         142.8040  134.9624  155.6480 C.ar    1  UNL1        0.0642
     20 N         141.7715  140.0509  158.4985 N.pl3   1  UNL1       -0.3030
     21 C         140.4739  140.4835  157.8829 C.3     1  UNL1        0.1082
     22 C         139.2527  140.6402  158.7397 C.3     1  UNL1        0.0941
     23 N         139.3292  140.3643  160.2121 N.3     1  UNL1       -0.2659
     24 C         140.6268  139.9317  160.8278 C.3     1  UNL1        0.0941
     25 C         141.8480  139.7750  159.9709 C.3     1  UNL1        0.1082
     26 C         138.1080  140.5209  161.0690 C.3     1  UNL1        0.1008
     27 C         138.0039  141.6741  162.0227 C.ar    1  UNL1        0.0130
     28 C         137.7874  141.4207  163.4852 C.ar    1  UNL1        0.0002
     29 C         137.6832  142.5737  164.4388 C.ar    1  UNL1        0.0204
     30 C         137.7955  143.9803  163.9300 C.ar    1  UNL1        0.0989
     31 N         138.0120  144.2337  162.4675 N.ar    1  UNL1       -0.2426
     32 C         138.1162  143.0807  161.5138 C.ar    1  UNL1        0.0959
@<TRIPOS>BOND
     1    12    13    1
     2    13    14   ar
     3    14    15   ar
     4    15    16    1
     5    15    17   ar
     6    17    18    1
     7    17    19   ar
     8    19     1    1
     9     1     2   ar
    10     2     3   ar
    11     3     4   ar
    12     4    20    1
    13    20    21    1
    14    21    22    1
    15    22    23    1
    16    23    26    1
    17    26    27    1
    18    27    28   ar
    19    28    29   ar
    20    29    30   ar
    21    30    31   ar
    22    31    32   ar
    23    23    24    1
    24    24    25    1
    25     4     5   ar
    26     5     6    1
    27     5     7   ar
    28     7     8   ar
    29     8     9   ar
    30     9    10   ar
    31    19    13   ar
    32    10     1   ar
    33     9     3    1
    34    25    20    1
    35    32    27   ar
    36     8    11    1
@<TRIPOS>MOLECULE
*****
 32 36 0 0 0
SMALL
GASTEIGER

@<TRIPOS>ATOM
      1 C         141.8443  141.1108  158.5034 C.ar    1  UNL1        0.1663
      2 N         141.5680  141.2571  159.9704 N.ar    1  UNL1       -0.2222
      3 C         141.0983  142.6603  160.2160 C.ar    1  UNL1        0.1305
      4 C         140.6815  143.3747  161.4674 C.ar    1  UNL1        0.0765
      5 C         140.2507  144.8101  161.4034 C.ar    1  UNL1        0.0664
      6 BR        139.8339  145.5245  162.6548 Br      1  UNL1       -0.0461
      7 C         140.2367  145.5310  160.0882 C.ar    1  UNL1        0.0816
      8 N         140.6534  144.8167  158.8368 N.ar    1  UNL1       -0.3357
      9 C         141.0842  143.3813  158.9007 C.ar    1  UNL1        0.1613
     10 N         141.5453  142.4237  157.8422 N.ar    1  UNL1       -0.2081
     11 H         140.6442  145.2899  157.9735 H       1  UNL1        0.1675
     12 C         144.7597  140.7232  157.0893 C.3     1  UNL1        0.0541
     13 C         143.6737  139.6916  157.1678 C.ar    1  UNL1        0.0830
     14 N         143.7371  138.3005  156.6101 N.ar    1  UNL1       -0.1738
     15 N         142.4363  137.6189  156.9154 N.ar    1  UNL1       -0.2531
     16 C         142.0676  136.2143  156.5402 C.3     1  UNL1        0.1533
     17 C         141.5688  138.5888  157.6618 C.ar    1  UNL1        0.0601
     18 C         140.1804  138.3241  158.1640 C.3     1  UNL1        0.0518
     19 C         142.3336  139.8697  157.8178 C.ar    1  UNL1        0.0642
     20 N         140.6955  142.6537  162.7827 N.pl3   1  UNL1       -0.3030
     21 C         141.9738  142.5330  163.5582 C.3     1  UNL1        0.1082
     22 C         141.9877  141.8121  164.8735 C.3     1  UNL1        0.0941
     23 N         140.7234  141.2119  165.4133 N.3     1  UNL1       -0.2659
     24 C         139.4452  141.3326  164.6378 C.3     1  UNL1        0.0941
     25 C         139.4312  142.0535  163.3224 C.3     1  UNL1        0.1082
     26 C         140.7373  140.4909  166.7286 C.3     1  UNL1        0.1008
     27 C         140.3943  141.2260  167.9905 C.ar    1  UNL1        0.0130
     28 C         140.7872  142.6647  168.1508 C.ar    1  UNL1        0.0002
     29 C         140.4442  143.3998  169.4125 C.ar    1  UNL1        0.0204
     30 C         139.7084  142.6960  170.5140 C.ar    1  UNL1        0.0989
     31 N         139.3155  141.2573  170.3537 N.ar    1  UNL1       -0.2426
     32 C         139.6585  140.5222  169.0919 C.ar    1  UNL1        0.0959
@<TRIPOS>BOND
     1    12    13    1
     2    13    14   ar
     3    14    15   ar
     4    15    16    1
     5    15    17   ar
     6    17    18    1
     7    17    19   ar
     8    19     1    1
     9     1     2   ar
    10     2     3   ar
    11     3     4   ar
    12     4    20    1
    13    20    21    1
    14    21    22    1
    15    22    23    1
    16    23    26    1
    17    26    27    1
    18    27    28   ar
    19    28    29   ar
    20    29    30   ar
    21    30    31   ar
    22    31    32   ar
    23    23    24    1
    24    24    25    1
    25     4     5   ar
    26     5     6    1
    27     5     7   ar
    28     7     8   ar
    29     8     9   ar
    30     9    10   ar
    31    19    13   ar
    32    10     1   ar
    33     9     3    1
    34    25    20    1
    35    32    27   ar
    36     8    11    1
@<TRIPOS>MOLECULE
*****
 32 36 0 0 0
SMALL
GASTEIGER

@<TRIPOS>ATOM
      1 C         140.0962  142.1639  165.9470 C.ar    1  UNL1        0.1663
      2 N         140.5835  141.6858  164.6114 N.ar    1  UNL1       -0.2222
      3 C         140.6228  142.8638  163.6836 C.ar    1  UNL1        0.1305
      4 C         141.0204  142.9940  162.2431 C.ar    1  UNL1        0.0765
      5 C         140.9549  144.3304  161.5649 C.ar    1  UNL1        0.0664
      6 BR        141.3525  144.4607  160.1244 Br      1  UNL1       -0.0461
      7 C         140.4919  145.5364  162.3271 C.ar    1  UNL1        0.0816
      8 N         140.0943  145.4062  163.7676 N.ar    1  UNL1       -0.3357
      9 C         140.1597  144.0699  164.4458 C.ar    1  UNL1        0.1613
     10 N         139.8343  143.6373  165.8447 N.ar    1  UNL1       -0.2081
     11 H         139.7904  146.1978  164.2679 H       1  UNL1        0.1675
     12 C         138.3734  139.3974  166.1142 C.3     1  UNL1        0.0541
     13 C         139.1125  140.0456  167.2471 C.ar    1  UNL1        0.0830
     14 N         139.1895  139.5359  168.6557 N.ar    1  UNL1       -0.1738
     15 N         140.0291  140.4925  169.4496 N.ar    1  UNL1       -0.2531
     16 C         140.3674  140.3698  170.9057 C.3     1  UNL1        0.1533
     17 C         140.4709  141.5934  168.5314 C.ar    1  UNL1        0.0601
     18 C         141.3286  142.7649  168.9084 C.3     1  UNL1        0.0518
     19 C         139.9044  141.3172  167.1703 C.ar    1  UNL1        0.0642
     20 N         141.4834  141.7880  161.4808 N.pl3   1  UNL1       -0.3030
     21 C         140.4846  140.9108  160.7860 C.3     1  UNL1        0.1082
     22 C         140.9477  139.7048  160.0237 C.3     1  UNL1        0.0941
     23 N         142.4097  139.3760  159.9563 N.3     1  UNL1       -0.2659
     24 C         143.4085  140.2532  160.6511 C.3     1  UNL1        0.0941
     25 C         142.9454  141.4592  161.4134 C.3     1  UNL1        0.1082
     26 C         142.8728  138.1700  159.1940 C.3     1  UNL1        0.1008
     27 C         142.7482  138.1339  157.6995 C.ar    1  UNL1        0.0130
     28 C         142.9969  139.3758  156.8960 C.ar    1  UNL1        0.0002
     29 C         142.8723  139.3398  155.4016 C.ar    1  UNL1        0.0204
     30 C         142.4990  138.0617  154.7108 C.ar    1  UNL1        0.0989
     31 N         142.2503  136.8198  155.5144 N.ar    1  UNL1       -0.2426
     32 C         142.3749  136.8558  157.0087 C.ar    1  UNL1        0.0959
@<TRIPOS>BOND
     1    12    13    1
     2    13    14   ar
     3    14    15   ar
     4    15    16    1
     5    15    17   ar
     6    17    18    1
     7    17    19   ar
     8    19     1    1
     9     1     2   ar
    10     2     3   ar
    11     3     4   ar
    12     4    20    1
    13    20    21    1
    14    21    22    1
    15    22    23    1
    16    23    26    1
    17    26    27    1
    18    27    28   ar
    19    28    29   ar
    20    29    30   ar
    21    30    31   ar
    22    31    32   ar
    23    23    24    1
    24    24    25    1
    25     4     5   ar
    26     5     6    1
    27     5     7   ar
    28     7     8   ar
    29     8     9   ar
    30     9    10   ar
    31    19    13   ar
    32    10     1   ar
    33     9     3    1
    34    25    20    1
    35    32    27   ar
    36     8    11    1
@<TRIPOS>MOLECULE
*****
 32 36 0 0 0
SMALL
GASTEIGER

@<TRIPOS>ATOM
      1 C         134.1312  140.3255  156.0600 C.ar    1  UNL1        0.1663
      2 N         135.3067  140.4978  156.9757 N.ar    1  UNL1       -0.2222
      3 C         136.5299  140.6892  156.1288 C.ar    1  UNL1        0.1305
      4 C         137.9715  140.9056  156.4821 C.ar    1  UNL1        0.0765
      5 C         138.9935  141.0681  155.3962 C.ar    1  UNL1        0.0664
      6 BR        140.4353  141.2846  155.7495 Br      1  UNL1       -0.0461
      7 C         138.5740  141.0141  153.9572 C.ar    1  UNL1        0.0816
      8 N         137.1324  140.7977  153.6039 N.ar    1  UNL1       -0.3357
      9 C         136.1103  140.6352  154.6896 C.ar    1  UNL1        0.1613
     10 N         134.6278  140.4104  154.6472 N.ar    1  UNL1       -0.2081
     11 H         136.8570  140.7622  152.6593 H       1  UNL1        0.1675
     12 C         131.5084  141.8120  154.8108 C.3     1  UNL1        0.0541
     13 C         131.5033  140.7900  155.9087 C.ar    1  UNL1        0.0830
     14 N         130.2916  140.2718  156.6251 N.ar    1  UNL1       -0.1738
     15 N         130.7482  139.2682  157.6422 N.ar    1  UNL1       -0.2531
     16 C         129.8659  138.5014  158.5820 C.3     1  UNL1        0.1533
     17 C         132.2422  139.1662  157.5542 C.ar    1  UNL1        0.0601
     18 C         133.1161  138.2794  158.3908 C.3     1  UNL1        0.0518
     19 C         132.7088  140.1067  156.4829 C.ar    1  UNL1        0.0642
     20 N         138.3911  140.9596  157.9212 N.pl3   1  UNL1       -0.3030
     21 C         138.3589  142.2627  158.6635 C.3     1  UNL1        0.1082
     22 C         138.7785  142.3166  160.1026 C.3     1  UNL1        0.0941
     23 N         139.2304  141.0674  160.7993 N.3     1  UNL1       -0.2659
     24 C         139.2627  139.7644  160.0571 C.3     1  UNL1        0.0941
     25 C         138.8430  139.7105  158.6180 C.3     1  UNL1        0.1082
     26 C         139.6501  141.1213  162.2384 C.3     1  UNL1        0.1008
     27 C         139.3914  142.3565  163.0494 C.ar    1  UNL1        0.0130
     28 C         138.0443  142.5769  163.6714 C.ar    1  UNL1        0.0002
     29 C         137.7856  143.8120  164.4823 C.ar    1  UNL1        0.0204
     30 C         138.8739  144.8267  164.6712 C.ar    1  UNL1        0.0989
     31 N         140.2210  144.6064  164.0492 N.ar    1  UNL1       -0.2426
     32 C         140.4798  143.3713  163.2383 C.ar    1  UNL1        0.0959
@<TRIPOS>BOND
     1    12    13    1
     2    13    14   ar
     3    14    15   ar
     4    15    16    1
     5    15    17   ar
     6    17    18    1
     7    17    19   ar
     8    19     1    1
     9     1     2   ar
    10     2     3   ar
    11     3     4   ar
    12     4    20    1
    13    20    21    1
    14    21    22    1
    15    22    23    1
    16    23    26    1
    17    26    27    1
    18    27    28   ar
    19    28    29   ar
    20    29    30   ar
    21    30    31   ar
    22    31    32   ar
    23    23    24    1
    24    24    25    1
    25     4     5   ar
    26     5     6    1
    27     5     7   ar
    28     7     8   ar
    29     8     9   ar
    30     9    10   ar
    31    19    13   ar
    32    10     1   ar
    33     9     3    1
    34    25    20    1
    35    32    27   ar
    36     8    11    1
@<TRIPOS>MOLECULE
*****
 32 36 0 0 0
SMALL
GASTEIGER

@<TRIPOS>ATOM
      1 C         140.8201  140.2113  165.7856 C.ar    1  UNL1        0.1663
      2 N         140.7848  140.9747  164.4949 N.ar    1  UNL1       -0.2222
      3 C         139.9235  140.2146  163.5303 C.ar    1  UNL1        0.1305
      4 C         139.5277  140.4861  162.1092 C.ar    1  UNL1        0.0765
      5 C         138.6347  139.5243  161.3827 C.ar    1  UNL1        0.0664
      6 BR        138.2387  139.7958  159.9615 Br      1  UNL1       -0.0461
      7 C         138.1376  138.2913  162.0773 C.ar    1  UNL1        0.0816
      8 N         138.5335  138.0199  163.4984 N.ar    1  UNL1       -0.3357
      9 C         139.4265  138.9815  164.2249 C.ar    1  UNL1        0.1613
     10 N         139.9806  138.9795  165.6188 N.ar    1  UNL1       -0.2081
     11 H         138.2073  137.2106  163.9542 H       1  UNL1        0.1675
     12 C         143.2492  138.5410  167.1852 C.3     1  UNL1        0.0541
     13 C         142.6807  139.8420  167.6689 C.ar    1  UNL1        0.0830
     14 N         143.1290  140.6037  168.8808 N.ar    1  UNL1       -0.1738
     15 N         142.2896  141.8423  168.9866 N.ar    1  UNL1       -0.2531
     16 C         142.3981  142.8926  170.0519 C.3     1  UNL1        0.1533
     17 C         141.3224  141.8461  167.8400 C.ar    1  UNL1        0.0601
     18 C         140.2941  142.9009  167.5574 C.3     1  UNL1        0.0518
     19 C         141.5642  140.6098  167.0256 C.ar    1  UNL1        0.0642
     20 N         140.0247  141.7191  161.4145 N.pl3   1  UNL1       -0.3030
     21 C         139.2204  142.9842  161.4651 C.3     1  UNL1        0.1082
     22 C         139.7175  144.2172  160.7704 C.3     1  UNL1        0.0941
     23 N         141.0189  144.1851  160.0252 N.3     1  UNL1       -0.2659
     24 C         141.8232  142.9200  159.9746 C.3     1  UNL1        0.0941
     25 C         141.3261  141.6870  160.6693 C.3     1  UNL1        0.1082
     26 C         141.5160  145.4181  159.3305 C.3     1  UNL1        0.1008
     27 C         141.2762  145.5992  157.8608 C.ar    1  UNL1        0.0130
     28 C         140.0159  146.2565  157.3819 C.ar    1  UNL1        0.0002
     29 C         139.7761  146.4376  155.9123 C.ar    1  UNL1        0.0204
     30 C         140.7967  145.9613  154.9217 C.ar    1  UNL1        0.0989
     31 N         142.0571  145.3040  155.4006 N.ar    1  UNL1       -0.2426
     32 C         142.2969  145.1229  156.8702 C.ar    1  UNL1        0.0959
@<TRIPOS>BOND
     1    12    13    1
     2    13    14   ar
     3    14    15   ar
     4    15    16    1
     5    15    17   ar
     6    17    18    1
     7    17    19   ar
     8    19     1    1
     9     1     2   ar
    10     2     3   ar
    11     3     4   ar
    12     4    20    1
    13    20    21    1
    14    21    22    1
    15    22    23    1
    16    23    26    1
    17    26    27    1
    18    27    28   ar
    19    28    29   ar
    20    29    30   ar
    21    30    31   ar
    22    31    32   ar
    23    23    24    1
    24    24    25    1
    25     4     5   ar
    26     5     6    1
    27     5     7   ar
    28     7     8   ar
    29     8     9   ar
    30     9    10   ar
    31    19    13   ar
    32    10     1   ar
    33     9     3    1
    34    25    20    1
    35    32    27   ar
    36     8    11    1
