@<TRIPOS>MOLECULE
*****
 34 37 0 0 0
SMALL
GASTEIGER

@<TRIPOS>ATOM
      1 C         138.4717  138.9315  165.5228 C.ar    1  UNL1        0.0536
      2 C         137.9689  140.0322  164.6365 C.ar    1  UNL1        0.0042
      3 C         138.0738  139.9020  163.1459 C.ar    1  UNL1       -0.0024
      4 C         138.6817  138.6711  162.5415 C.ar    1  UNL1        0.0017
      5 C         139.1846  137.5703  163.4278 C.ar    1  UNL1       -0.0024
      6 C         139.0796  137.7005  164.9184 C.ar    1  UNL1        0.0042
      7 C         140.6431  142.2993  169.1550 C.3     1  UNL1        0.1025
      8 C         140.7481  142.1690  167.6644 C.3     1  UNL1        0.0327
      9 C         139.9893  141.0899  166.9505 C.3     1  UNL1        0.0943
     10 N         139.1256  140.1409  167.7273 N.am    1  UNL1       -0.2761
     11 C         138.3668  139.0617  167.0134 C.2     1  UNL1        0.2490
     12 O         137.5030  138.1128  167.7902 O.2     1  UNL1       -0.2699
     13 C         139.0206  140.2712  169.2180 C.3     1  UNL1        0.0943
     14 C         139.7794  141.3503  169.9318 C.3     1  UNL1        0.0327
     15 C         141.4019  143.3785  169.8689 C.2     1  UNL1        0.3167
     16 O         140.6960  144.6274  170.3070 O.2     1  UNL1       -0.2501
     17 C         143.5463  141.9128  169.8157 C.3     1  UNL1        0.2556
     18 O         142.8665  143.2088  170.1446 O.3     1  UNL1       -0.4444
     19 C         138.7866  138.5408  161.0509 C.3     1  UNL1        0.1822
     20 S         139.0838  139.7480  160.2116 S.O2    1  UNL1        0.0129
     21 O         137.6647  139.7596  159.7258 O.2     1  UNL1       -0.1683
     22 O         140.5029  139.7364  160.6974 O.2     1  UNL1       -0.1683
     23 C         139.3810  140.9553  159.3723 C.ar    1  UNL1        0.1066
     24 C         138.5334  141.2623  158.1735 C.ar    1  UNL1        0.0199
     25 C         138.8306  142.4695  157.3343 C.ar    1  UNL1        0.0210
     26 C         139.9753  143.3696  157.6939 C.ar    1  UNL1        0.0893
     27 N         140.5051  144.6217  157.0600 N.ar    1  UNL1       -0.2245
     28 C         141.6801  145.0884  157.8671 C.ar    1  UNL1        0.1567
     29 N         142.5127  146.3051  157.5902 N.pl3   1  UNL1       -0.3375
     30 S         141.8765  144.1248  158.9998 S.2     1  UNL1       -0.0519
     31 C         140.8229  143.0626  158.8927 C.ar    1  UNL1        0.0510
     32 C         140.5257  141.8554  159.7320 C.ar    1  UNL1        0.0264
     33 H         142.3041  146.8789  156.8179 H       1  UNL1        0.1442
     34 H         143.2676  146.5298  158.1808 H       1  UNL1        0.1442
@<TRIPOS>BOND
     1    17    18    1
     2    18    15    1
     3    15    16    2
     4    15     7    1
     5     7     8    1
     6     8     9    1
     7     9    10    1
     8    10    11   am
     9    11    12    2
    10    11     1    1
    11     1     2   ar
    12     2     3   ar
    13     3     4   ar
    14     4    19    1
    15    19    20    1
    16    20    21    2
    17    20    22    2
    18    20    23    1
    19    23    24   ar
    20    24    25   ar
    21    25    26   ar
    22    26    27   ar
    23    27    28   ar
    24    28    29    1
    25    28    30   ar
    26    30    31   ar
    27    31    32   ar
    28     4     5   ar
    29     5     6   ar
    30    10    13    1
    31    13    14    1
    32    14     7    1
    33     6     1   ar
    34    32    23   ar
    35    31    26   ar
    36    29    33    1
    37    29    34    1
@<TRIPOS>MOLECULE
*****
 34 37 0 0 0
SMALL
GASTEIGER

@<TRIPOS>ATOM
      1 C         138.5363  138.9444  165.2595 C.ar    1  UNL1        0.0536
      2 C         137.9544  140.0137  164.3833 C.ar    1  UNL1        0.0042
      3 C         138.0749  139.9092  162.8918 C.ar    1  UNL1       -0.0024
      4 C         138.7773  138.7353  162.2766 C.ar    1  UNL1        0.0017
      5 C         139.3592  137.6659  163.1528 C.ar    1  UNL1       -0.0024
      6 C         139.2387  137.7704  164.6443 C.ar    1  UNL1        0.0042
      7 C         140.6923  142.2304  168.9748 C.3     1  UNL1        0.1025
      8 C         140.8128  142.1259  167.4833 C.3     1  UNL1        0.0327
      9 C         140.0540  141.0654  166.7421 C.3     1  UNL1        0.0943
     10 N         139.1746  140.1095  167.4923 N.am    1  UNL1       -0.2761
     11 C         138.4157  139.0489  166.7510 C.2     1  UNL1        0.2490
     12 O         137.5364  138.0930  167.5013 O.2     1  UNL1       -0.2699
     13 C         139.0541  140.2140  168.9838 C.3     1  UNL1        0.0943
     14 C         139.8129  141.2745  169.7251 C.3     1  UNL1        0.0327
     15 C         141.4512  143.2910  169.7161 C.2     1  UNL1        0.3167
     16 O         140.7262  144.4779  170.2779 O.2     1  UNL1       -0.2501
     17 C         143.5819  141.8117  169.8627 C.3     1  UNL1        0.2556
     18 O         142.9350  143.1646  169.8955 O.3     1  UNL1       -0.4444
     19 C         138.8978  138.6308  160.7851 C.3     1  UNL1        0.1822
     20 S         139.0164  139.8733  159.9533 S.O2    1  UNL1        0.0129
     21 O         140.4351  140.0435  160.4096 O.2     1  UNL1       -0.1683
     22 O         137.5977  139.7031  159.4969 O.2     1  UNL1       -0.1683
     23 C         139.1349  141.1160  159.1214 C.ar    1  UNL1        0.1066
     24 C         140.2463  142.0892  159.3813 C.ar    1  UNL1        0.0199
     25 C         140.3649  143.3317  158.5494 C.ar    1  UNL1        0.0210
     26 C         139.3720  143.6011  157.4578 C.ar    1  UNL1        0.0893
     27 N         139.2354  144.7321  156.4819 N.ar    1  UNL1       -0.2245
     28 C         138.0395  144.4578  155.6190 C.ar    1  UNL1        0.1567
     29 N         137.5347  145.3307  154.5085 N.pl3   1  UNL1       -0.3375
     30 S         137.4371  143.1573  156.0616 S.2     1  UNL1       -0.0519
     31 C         138.2606  142.6278  157.1980 C.ar    1  UNL1        0.0510
     32 C         138.1421  141.3853  158.0298 C.ar    1  UNL1        0.0264
     33 H         138.0007  146.1703  154.2917 H       1  UNL1        0.1442
     34 H         136.7373  145.0639  153.9964 H       1  UNL1        0.1442
@<TRIPOS>BOND
     1    17    18    1
     2    18    15    1
     3    15    16    2
     4    15     7    1
     5     7     8    1
     6     8     9    1
     7     9    10    1
     8    10    11   am
     9    11    12    2
    10    11     1    1
    11     1     2   ar
    12     2     3   ar
    13     3     4   ar
    14     4    19    1
    15    19    20    1
    16    20    21    2
    17    20    22    2
    18    20    23    1
    19    23    24   ar
    20    24    25   ar
    21    25    26   ar
    22    26    27   ar
    23    27    28   ar
    24    28    29    1
    25    28    30   ar
    26    30    31   ar
    27    31    32   ar
    28     4     5   ar
    29     5     6   ar
    30    10    13    1
    31    13    14    1
    32    14     7    1
    33     6     1   ar
    34    32    23   ar
    35    31    26   ar
    36    29    33    1
    37    29    34    1
@<TRIPOS>MOLECULE
*****
 34 37 0 0 0
SMALL
GASTEIGER

@<TRIPOS>ATOM
      1 C         138.4376  138.9078  165.6868 C.ar    1  UNL1        0.0536
      2 C         138.0888  140.0632  164.7960 C.ar    1  UNL1        0.0042
      3 C         138.2365  139.9349  163.3088 C.ar    1  UNL1       -0.0024
      4 C         138.7329  138.6513  162.7124 C.ar    1  UNL1        0.0017
      5 C         139.0817  137.4958  163.6032 C.ar    1  UNL1       -0.0024
      6 C         138.9340  137.6241  165.0904 C.ar    1  UNL1        0.0042
      7 C         140.5722  142.2150  169.3958 C.3     1  UNL1        0.1025
      8 C         140.7198  142.0867  167.9086 C.3     1  UNL1        0.0327
      9 C         139.9591  141.0271  167.1680 C.3     1  UNL1        0.0943
     10 N         139.0507  140.0958  167.9146 N.am    1  UNL1       -0.2761
     11 C         138.2899  139.0361  167.1740 C.2     1  UNL1        0.2490
     12 O         137.3815  138.1048  167.9206 O.2     1  UNL1       -0.2699
     13 C         138.9030  140.2241  169.4018 C.3     1  UNL1        0.0943
     14 C         139.6638  141.2837  170.1424 C.3     1  UNL1        0.0327
     15 C         141.3330  143.2746  170.1363 C.2     1  UNL1        0.3167
     16 O         140.7577  144.6530  170.2741 O.2     1  UNL1       -0.2501
     17 C         143.7845  142.4572  169.8691 C.3     1  UNL1        0.2556
     18 O         142.6690  142.9558  170.7391 O.3     1  UNL1       -0.4444
     19 C         138.8806  138.5230  161.2252 C.3     1  UNL1        0.1822
     20 S         139.7260  139.5037  160.4681 S.O2    1  UNL1        0.0129
     21 O         138.4874  140.1959  159.9816 O.2     1  UNL1       -0.1683
     22 O         140.9646  138.8115  160.9546 O.2     1  UNL1       -0.1683
     23 C         140.5715  140.4846  159.7109 C.ar    1  UNL1        0.1066
     24 C         141.7183  139.9980  158.8754 C.ar    1  UNL1        0.0199
     25 C         142.5637  140.9789  158.1183 C.ar    1  UNL1        0.0210
     26 C         142.2623  142.4462  158.1967 C.ar    1  UNL1        0.0893
     27 N         142.9155  143.6401  157.5658 N.ar    1  UNL1       -0.2245
     28 C         142.1723  144.8645  158.0114 C.ar    1  UNL1        0.1567
     29 N         142.4864  146.2779  157.6195 N.pl3   1  UNL1       -0.3375
     30 S         141.0598  144.4272  158.9176 S.2     1  UNL1       -0.0519
     31 C         141.1155  142.9327  159.0322 C.ar    1  UNL1        0.0510
     32 C         140.2701  141.9519  159.7893 C.ar    1  UNL1        0.0264
     33 H         143.2413  146.4653  157.0160 H       1  UNL1        0.1442
     34 H         141.9376  147.0183  157.9658 H       1  UNL1        0.1442
@<TRIPOS>BOND
     1    17    18    1
     2    18    15    1
     3    15    16    2
     4    15     7    1
     5     7     8    1
     6     8     9    1
     7     9    10    1
     8    10    11   am
     9    11    12    2
    10    11     1    1
    11     1     2   ar
    12     2     3   ar
    13     3     4   ar
    14     4    19    1
    15    19    20    1
    16    20    21    2
    17    20    22    2
    18    20    23    1
    19    23    24   ar
    20    24    25   ar
    21    25    26   ar
    22    26    27   ar
    23    27    28   ar
    24    28    29    1
    25    28    30   ar
    26    30    31   ar
    27    31    32   ar
    28     4     5   ar
    29     5     6   ar
    30    10    13    1
    31    13    14    1
    32    14     7    1
    33     6     1   ar
    34    32    23   ar
    35    31    26   ar
    36    29    33    1
    37    29    34    1
@<TRIPOS>MOLECULE
*****
 34 37 0 0 0
SMALL
GASTEIGER

@<TRIPOS>ATOM
      1 C         138.1106  139.8456  161.6573 C.ar    1  UNL1        0.0536
      2 C         138.7261  138.4845  161.7930 C.ar    1  UNL1        0.0042
      3 C         139.0151  137.9243  163.1541 C.ar    1  UNL1       -0.0024
      4 C         138.6887  138.7253  164.3796 C.ar    1  UNL1        0.0017
      5 C         138.0733  140.0866  164.2439 C.ar    1  UNL1       -0.0024
      6 C         137.7842  140.6467  162.8828 C.ar    1  UNL1        0.0042
      7 C         140.0197  144.0573  158.8525 C.3     1  UNL1        0.1025
      8 C         140.3087  143.4972  160.2137 C.3     1  UNL1        0.0327
      9 C         139.5761  142.2800  160.6949 C.3     1  UNL1        0.0943
     10 N         138.5543  141.6230  159.8149 N.am    1  UNL1       -0.2761
     11 C         137.8216  140.4057  160.2961 C.2     1  UNL1        0.2490
     12 O         136.7999  139.7487  159.4162 O.2     1  UNL1       -0.2699
     13 C         138.2653  142.1831  158.4538 C.3     1  UNL1        0.0943
     14 C         138.9980  143.4003  157.9726 C.3     1  UNL1        0.0327
     15 C         140.7524  145.2746  158.3713 C.2     1  UNL1        0.3167
     16 O         142.0715  145.6460  158.9814 O.2     1  UNL1       -0.2501
     17 C         140.9286  146.3357  156.0064 C.3     1  UNL1        0.2556
     18 O         140.1661  146.1204  157.2801 O.3     1  UNL1       -0.4444
     19 C         138.9778  138.1652  165.7407 C.3     1  UNL1        0.1822
     20 S         139.3993  139.0784  166.8535 S.O2    1  UNL1        0.0129
     21 O         138.0882  138.8433  167.5431 O.2     1  UNL1       -0.1683
     22 O         140.7104  139.3135  166.1639 O.2     1  UNL1       -0.1683
     23 C         139.8208  139.9916  167.9664 C.ar    1  UNL1        0.1066
     24 C         138.9028  140.2316  169.1281 C.ar    1  UNL1        0.0199
     25 C         139.3243  141.1448  170.2409 C.ar    1  UNL1        0.0210
     26 C         140.6639  141.8180  170.1920 C.ar    1  UNL1        0.0893
     27 N         141.3471  142.7633  171.1352 N.ar    1  UNL1       -0.2245
     28 C         142.6874  143.1076  170.5564 C.ar    1  UNL1        0.1567
     29 N         143.7042  144.0235  171.1706 N.pl3   1  UNL1       -0.3375
     30 S         142.8325  142.3750  169.2554 S.2     1  UNL1       -0.0519
     31 C         141.5819  141.5781  169.0302 C.ar    1  UNL1        0.0510
     32 C         141.1603  140.6649  167.9174 C.ar    1  UNL1        0.0264
     33 H         143.5161  144.4605  172.0325 H       1  UNL1        0.1442
     34 H         144.5597  144.1877  170.7118 H       1  UNL1        0.1442
@<TRIPOS>BOND
     1    17    18    1
     2    18    15    1
     3    15    16    2
     4    15     7    1
     5     7     8    1
     6     8     9    1
     7     9    10    1
     8    10    11   am
     9    11    12    2
    10    11     1    1
    11     1     2   ar
    12     2     3   ar
    13     3     4   ar
    14     4    19    1
    15    19    20    1
    16    20    21    2
    17    20    22    2
    18    20    23    1
    19    23    24   ar
    20    24    25   ar
    21    25    26   ar
    22    26    27   ar
    23    27    28   ar
    24    28    29    1
    25    28    30   ar
    26    30    31   ar
    27    31    32   ar
    28     4     5   ar
    29     5     6   ar
    30    10    13    1
    31    13    14    1
    32    14     7    1
    33     6     1   ar
    34    32    23   ar
    35    31    26   ar
    36    29    33    1
    37    29    34    1
@<TRIPOS>MOLECULE
*****
 34 37 0 0 0
SMALL
GASTEIGER

@<TRIPOS>ATOM
      1 C         142.5538  138.4223  164.6643 C.ar    1  UNL1        0.0536
      2 C         143.1102  139.3563  163.6308 C.ar    1  UNL1        0.0042
      3 C         142.6696  139.2417  162.2016 C.ar    1  UNL1       -0.0024
      4 C         141.6727  138.1932  161.8058 C.ar    1  UNL1        0.0017
      5 C         141.1163  137.2592  162.8393 C.ar    1  UNL1       -0.0024
      6 C         141.5568  137.3737  164.2685 C.ar    1  UNL1        0.0042
      7 C         140.2338  140.3295  169.1621 C.3     1  UNL1        0.1025
      8 C         139.7932  140.2149  167.7328 C.3     1  UNL1        0.0327
      9 C         140.7134  139.6174  166.7100 C.3     1  UNL1        0.0943
     10 N         142.0741  139.1345  167.1164 N.am    1  UNL1       -0.2761
     11 C         142.9943  138.5369  166.0936 C.2     1  UNL1        0.2490
     12 O         144.3550  138.0540  166.5000 O.2     1  UNL1       -0.2699
     13 C         142.5146  139.2490  168.5457 C.3     1  UNL1        0.0943
     14 C         141.5944  139.8465  169.5685 C.3     1  UNL1        0.0327
     15 C         139.3135  140.9270  170.1850 C.2     1  UNL1        0.3167
     16 O         138.0937  140.1743  170.6271 O.2     1  UNL1       -0.2501
     17 C         140.3495  143.2979  169.9496 C.3     1  UNL1        0.2556
     18 O         139.6131  142.2772  170.7656 O.3     1  UNL1       -0.4444
     19 C         141.2322  138.0786  160.3765 C.3     1  UNL1        0.1822
     20 S         142.0982  138.6220  159.2789 S.O2    1  UNL1        0.0129
     21 O         142.9857  137.4173  159.3826 O.2     1  UNL1       -0.1683
     22 O         141.2107  139.8268  159.1752 O.2     1  UNL1       -0.1683
     23 C         142.9642  139.1655  158.1813 C.ar    1  UNL1        0.1066
     24 C         143.0305  138.4598  156.8593 C.ar    1  UNL1        0.0199
     25 C         143.8966  139.0032  155.7618 C.ar    1  UNL1        0.0210
     26 C         144.6962  140.2523  155.9862 C.ar    1  UNL1        0.0893
     27 N         145.6314  141.0185  155.0981 N.ar    1  UNL1       -0.2245
     28 C         146.1430  142.1976  155.8713 C.ar    1  UNL1        0.1567
     29 N         147.1047  143.2326  155.3672 N.pl3   1  UNL1       -0.3375
     30 S         145.5240  142.1602  157.2371 S.2     1  UNL1       -0.0519
     31 C         144.6299  140.9579  157.3081 C.ar    1  UNL1        0.0510
     32 C         143.7639  140.4145  158.4057 C.ar    1  UNL1        0.0264
     33 H         147.4580  143.1711  154.4503 H       1  UNL1        0.1442
     34 H         147.3826  143.9733  155.9532 H       1  UNL1        0.1442
@<TRIPOS>BOND
     1    17    18    1
     2    18    15    1
     3    15    16    2
     4    15     7    1
     5     7     8    1
     6     8     9    1
     7     9    10    1
     8    10    11   am
     9    11    12    2
    10    11     1    1
    11     1     2   ar
    12     2     3   ar
    13     3     4   ar
    14     4    19    1
    15    19    20    1
    16    20    21    2
    17    20    22    2
    18    20    23    1
    19    23    24   ar
    20    24    25   ar
    21    25    26   ar
    22    26    27   ar
    23    27    28   ar
    24    28    29    1
    25    28    30   ar
    26    30    31   ar
    27    31    32   ar
    28     4     5   ar
    29     5     6   ar
    30    10    13    1
    31    13    14    1
    32    14     7    1
    33     6     1   ar
    34    32    23   ar
    35    31    26   ar
    36    29    33    1
    37    29    34    1
@<TRIPOS>MOLECULE
*****
 34 37 0 0 0
SMALL
GASTEIGER

@<TRIPOS>ATOM
      1 C         138.3867  139.2051  165.3045 C.ar    1  UNL1        0.0536
      2 C         137.8848  140.4228  164.5867 C.ar    1  UNL1        0.0042
      3 C         137.8844  140.4626  163.0872 C.ar    1  UNL1       -0.0024
      4 C         138.3860  139.2848  162.3055 C.ar    1  UNL1        0.0017
      5 C         138.8880  138.0670  163.0233 C.ar    1  UNL1       -0.0024
      6 C         138.8884  138.0272  164.5228 C.ar    1  UNL1        0.0042
      7 C         141.3578  141.6277  169.1194 C.3     1  UNL1        0.1025
      8 C         141.3574  141.6676  167.6199 C.3     1  UNL1        0.0327
      9 C         140.3672  140.8468  166.8481 C.3     1  UNL1        0.0943
     10 N         139.3774  139.9861  167.5758 N.am    1  UNL1       -0.2761
     11 C         138.3871  139.1653  166.8039 C.2     1  UNL1        0.2490
     12 O         137.3973  138.3046  167.5316 O.2     1  UNL1       -0.2699
     13 C         139.3778  139.9463  169.0752 C.3     1  UNL1        0.0943
     14 C         140.3680  140.7671  169.8470 C.3     1  UNL1        0.0327
     15 C         142.3481  142.4486  169.8912 C.2     1  UNL1        0.3167
     16 O         142.0173  142.9138  171.2784 O.2     1  UNL1       -0.2501
     17 C         144.8794  142.9752  170.1451 C.3     1  UNL1        0.2556
     18 O         143.6690  142.8042  169.2759 O.3     1  UNL1       -0.4444
     19 C         138.3856  139.3246  160.8061 C.3     1  UNL1        0.1822
     20 S         139.6756  139.4957  160.0600 S.O2    1  UNL1        0.0129
     21 O         139.6440  138.0468  159.6731 O.2     1  UNL1       -0.1683
     22 O         139.7072  140.9445  160.4469 O.2     1  UNL1       -0.1683
     23 C         140.9656  139.6667  159.3139 C.ar    1  UNL1        0.1066
     24 C         141.5076  138.5402  158.4849 C.ar    1  UNL1        0.0199
     25 C         142.7976  138.7113  157.7389 C.ar    1  UNL1        0.0210
     26 C         143.5456  140.0088  157.8218 C.ar    1  UNL1        0.0893
     27 N         144.8322  140.4671  157.2015 N.ar    1  UNL1       -0.2245
     28 C         145.0853  141.8768  157.6471 C.ar    1  UNL1        0.1567
     29 N         146.2620  142.7248  157.2642 N.pl3   1  UNL1       -0.3375
     30 S         143.9552  142.2898  158.5428 S.2     1  UNL1       -0.0519
     31 C         143.0036  141.1353  158.6508 C.ar    1  UNL1        0.0510
     32 C         141.7136  140.9643  159.3968 C.ar    1  UNL1        0.0264
     33 H         146.9562  142.3628  156.6674 H       1  UNL1        0.1442
     34 H         146.3400  143.6433  157.6098 H       1  UNL1        0.1442
@<TRIPOS>BOND
     1    17    18    1
     2    18    15    1
     3    15    16    2
     4    15     7    1
     5     7     8    1
     6     8     9    1
     7     9    10    1
     8    10    11   am
     9    11    12    2
    10    11     1    1
    11     1     2   ar
    12     2     3   ar
    13     3     4   ar
    14     4    19    1
    15    19    20    1
    16    20    21    2
    17    20    22    2
    18    20    23    1
    19    23    24   ar
    20    24    25   ar
    21    25    26   ar
    22    26    27   ar
    23    27    28   ar
    24    28    29    1
    25    28    30   ar
    26    30    31   ar
    27    31    32   ar
    28     4     5   ar
    29     5     6   ar
    30    10    13    1
    31    13    14    1
    32    14     7    1
    33     6     1   ar
    34    32    23   ar
    35    31    26   ar
    36    29    33    1
    37    29    34    1
@<TRIPOS>MOLECULE
*****
 34 37 0 0 0
SMALL
GASTEIGER

@<TRIPOS>ATOM
      1 C         140.9292  138.8020  164.5648 C.ar    1  UNL1        0.0536
      2 C         141.1381  139.8119  163.4757 C.ar    1  UNL1        0.0042
      3 C         140.1588  139.9074  162.3435 C.ar    1  UNL1       -0.0024
      4 C         138.9707  138.9928  162.3004 C.ar    1  UNL1        0.0017
      5 C         138.7618  137.9828  163.3896 C.ar    1  UNL1       -0.0024
      6 C         139.7411  137.8873  164.5218 C.ar    1  UNL1        0.0042
      7 C         141.2658  141.1241  169.4376 C.3     1  UNL1        0.1025
      8 C         140.2866  141.2195  168.3054 C.3     1  UNL1        0.0327
      9 C         140.5008  140.4137  167.0586 C.3     1  UNL1        0.0943
     10 N         141.6943  139.5124  166.9439 N.am    1  UNL1       -0.2761
     11 C         141.9085  138.7065  165.6970 C.2     1  UNL1        0.2490
     12 O         143.1020  137.8052  165.5823 O.2     1  UNL1       -0.2699
     13 C         142.6736  139.4170  168.0761 C.3     1  UNL1        0.0943
     14 C         142.4594  140.2228  169.3229 C.3     1  UNL1        0.0327
     15 C         141.0516  141.9300  170.6845 C.2     1  UNL1        0.3167
     16 O         140.5578  141.2621  171.9336 O.2     1  UNL1       -0.2501
     17 C         140.3417  144.3538  170.0755 C.3     1  UNL1        0.2556
     18 O         141.3311  143.4037  170.6823 O.3     1  UNL1       -0.4444
     19 C         137.9914  139.0883  161.1682 C.3     1  UNL1        0.1822
     20 S         138.1674  140.1374  160.1107 S.O2    1  UNL1        0.0129
     21 O         137.5342  141.1539  161.0137 O.2     1  UNL1       -0.1683
     22 O         138.8007  139.1208  159.2077 O.2     1  UNL1       -0.1683
     23 C         138.3435  141.1865  159.0531 C.ar    1  UNL1        0.1066
     24 C         137.6458  141.0452  157.7329 C.ar    1  UNL1        0.0199
     25 C         137.8219  142.0943  156.6754 C.ar    1  UNL1        0.0210
     26 C         138.6957  143.2848  156.9382 C.ar    1  UNL1        0.0893
     27 N         139.0566  144.4709  156.0938 N.ar    1  UNL1       -0.2245
     28 C         139.9774  145.3453  156.8922 C.ar    1  UNL1        0.1567
     29 N         140.5836  146.6385  156.4334 N.pl3   1  UNL1       -0.3375
     30 S         140.1856  144.6996  158.2301 S.2     1  UNL1       -0.0519
     31 C         139.3935  143.4262  158.2585 C.ar    1  UNL1        0.0510
     32 C         139.2174  142.3771  159.3159 C.ar    1  UNL1        0.0264
     33 H         140.3859  146.9825  155.5324 H       1  UNL1        0.1442
     34 H         141.1791  147.1431  157.0333 H       1  UNL1        0.1442
@<TRIPOS>BOND
     1    17    18    1
     2    18    15    1
     3    15    16    2
     4    15     7    1
     5     7     8    1
     6     8     9    1
     7     9    10    1
     8    10    11   am
     9    11    12    2
    10    11     1    1
    11     1     2   ar
    12     2     3   ar
    13     3     4   ar
    14     4    19    1
    15    19    20    1
    16    20    21    2
    17    20    22    2
    18    20    23    1
    19    23    24   ar
    20    24    25   ar
    21    25    26   ar
    22    26    27   ar
    23    27    28   ar
    24    28    29    1
    25    28    30   ar
    26    30    31   ar
    27    31    32   ar
    28     4     5   ar
    29     5     6   ar
    30    10    13    1
    31    13    14    1
    32    14     7    1
    33     6     1   ar
    34    32    23   ar
    35    31    26   ar
    36    29    33    1
    37    29    34    1
@<TRIPOS>MOLECULE
*****
 34 37 0 0 0
SMALL
GASTEIGER

@<TRIPOS>ATOM
      1 C         143.6286  139.0873  164.9655 C.ar    1  UNL1        0.0536
      2 C         142.7455  138.3789  163.9815 C.ar    1  UNL1        0.0042
      3 C         142.7883  138.7539  162.5298 C.ar    1  UNL1       -0.0024
      4 C         143.7143  139.8372  162.0620 C.ar    1  UNL1        0.0017
      5 C         144.5975  140.5457  163.0460 C.ar    1  UNL1       -0.0024
      6 C         144.5547  140.1707  164.4977 C.ar    1  UNL1        0.0042
      7 C         140.5071  140.5614  169.1287 C.3     1  UNL1        0.1025
      8 C         140.5499  140.9364  167.6770 C.3     1  UNL1        0.0327
      9 C         141.5761  140.3200  166.7732 C.3     1  UNL1        0.0943
     10 N         142.5595  139.3287  167.3211 N.am    1  UNL1       -0.2761
     11 C         143.5858  138.7123  166.4172 C.2     1  UNL1        0.2490
     12 O         144.5691  137.7210  166.9651 O.2     1  UNL1       -0.2699
     13 C         142.5166  138.9537  168.7728 C.3     1  UNL1        0.0943
     14 C         141.4904  139.5701  169.6766 C.3     1  UNL1        0.0327
     15 C         139.4808  141.1778  170.0326 C.2     1  UNL1        0.3167
     16 O         138.1968  140.4546  170.3125 O.2     1  UNL1       -0.2501
     17 C         140.5208  143.5553  169.9078 C.3     1  UNL1        0.2556
     18 O         139.7386  142.5173  170.6565 O.3     1  UNL1       -0.4444
     19 C         143.7572  140.2122  160.6102 C.3     1  UNL1        0.1822
     20 S         142.9965  141.4092  160.1220 S.O2    1  UNL1        0.0129
     21 O         144.2306  142.2503  160.2612 O.2     1  UNL1       -0.1683
     22 O         141.7623  140.5681  159.9829 O.2     1  UNL1       -0.1683
     23 C         142.2357  142.6063  159.6338 C.ar    1  UNL1        0.1066
     24 C         141.2238  143.2658  160.5232 C.ar    1  UNL1        0.0199
     25 C         140.4631  144.4628  160.0350 C.ar    1  UNL1        0.0210
     26 C         140.7144  145.0004  158.6574 C.ar    1  UNL1        0.0893
     27 N         140.1220  146.1568  157.9077 N.ar    1  UNL1       -0.2245
     28 C         140.7678  146.2120  156.5550 C.ar    1  UNL1        0.1567
     29 N         140.4737  147.2135  155.4777 N.pl3   1  UNL1       -0.3375
     30 S         141.7594  145.0897  156.4686 S.2     1  UNL1       -0.0519
     31 C         141.7264  144.3410  157.7680 C.ar    1  UNL1        0.0510
     32 C         142.4870  143.1440  158.2562 C.ar    1  UNL1        0.0264
     33 H         139.8020  147.9170  155.6297 H       1  UNL1        0.1442
     34 H         140.9524  147.1673  154.6186 H       1  UNL1        0.1442
@<TRIPOS>BOND
     1    17    18    1
     2    18    15    1
     3    15    16    2
     4    15     7    1
     5     7     8    1
     6     8     9    1
     7     9    10    1
     8    10    11   am
     9    11    12    2
    10    11     1    1
    11     1     2   ar
    12     2     3   ar
    13     3     4   ar
    14     4    19    1
    15    19    20    1
    16    20    21    2
    17    20    22    2
    18    20    23    1
    19    23    24   ar
    20    24    25   ar
    21    25    26   ar
    22    26    27   ar
    23    27    28   ar
    24    28    29    1
    25    28    30   ar
    26    30    31   ar
    27    31    32   ar
    28     4     5   ar
    29     5     6   ar
    30    10    13    1
    31    13    14    1
    32    14     7    1
    33     6     1   ar
    34    32    23   ar
    35    31    26   ar
    36    29    33    1
    37    29    34    1
@<TRIPOS>MOLECULE
*****
 34 37 0 0 0
SMALL
GASTEIGER

@<TRIPOS>ATOM
      1 C         141.5771  139.0296  164.0430 C.ar    1  UNL1        0.0536
      2 C         141.1559  140.2851  163.3385 C.ar    1  UNL1        0.0042
      3 C         140.2969  140.2044  162.1115 C.ar    1  UNL1       -0.0024
      4 C         139.8590  138.8683  161.5890 C.ar    1  UNL1        0.0017
      5 C         140.2801  137.6128  162.2936 C.ar    1  UNL1       -0.0024
      6 C         141.1392  137.6934  163.5205 C.ar    1  UNL1        0.0042
      7 C         140.5745  140.0207  169.2643 C.3     1  UNL1        0.1025
      8 C         139.7154  139.9401  168.0374 C.3     1  UNL1        0.0327
      9 C         140.3359  139.6366  166.7059 C.3     1  UNL1        0.0943
     10 N         141.8156  139.4137  166.6015 N.am    1  UNL1       -0.2761
     11 C         142.4362  139.1102  165.2700 C.2     1  UNL1        0.2490
     12 O         143.9159  138.8874  165.1655 O.2     1  UNL1       -0.2699
     13 C         142.6747  139.4944  167.8284 C.3     1  UNL1        0.0943
     14 C         142.0541  139.7979  169.1599 C.3     1  UNL1        0.0327
     15 C         139.9539  140.3242  170.5958 C.2     1  UNL1        0.3167
     16 O         139.1813  139.2635  171.3224 O.2     1  UNL1       -0.2501
     17 C         140.2304  142.8921  170.3144 C.3     1  UNL1        0.2556
     18 O         140.1059  141.6884  171.2007 O.3     1  UNL1       -0.4444
     19 C         138.9999  138.7877  160.3621 C.3     1  UNL1        0.1822
     20 S         138.9174  139.9569  159.4261 S.O2    1  UNL1        0.0129
     21 O         137.5483  140.2781  159.9480 O.2     1  UNL1       -0.1683
     22 O         140.2864  139.6356  158.9041 O.2     1  UNL1       -0.1683
     23 C         138.8349  141.1262  158.4901 C.ar    1  UNL1        0.1066
     24 C         139.7424  142.3051  158.6808 C.ar    1  UNL1        0.0199
     25 C         139.6599  143.4742  157.7448 C.ar    1  UNL1        0.0210
     26 C         138.6697  143.4645  156.6181 C.ar    1  UNL1        0.0893
     27 N         138.3612  144.4656  155.5443 N.ar    1  UNL1       -0.2245
     28 C         137.2630  143.9053  154.6900 C.ar    1  UNL1        0.1567
     29 N         136.6436  144.5747  153.4990 N.pl3   1  UNL1       -0.3375
     30 S         136.8927  142.5580  155.2357 S.2     1  UNL1       -0.0519
     31 C         137.7622  142.2856  156.4273 C.ar    1  UNL1        0.0510
     32 C         137.8447  141.1164  157.3633 C.ar    1  UNL1        0.0264
     33 H         136.9563  145.4645  153.2166 H       1  UNL1        0.1442
     34 H         135.9245  144.1243  152.9998 H       1  UNL1        0.1442
@<TRIPOS>BOND
     1    17    18    1
     2    18    15    1
     3    15    16    2
     4    15     7    1
     5     7     8    1
     6     8     9    1
     7     9    10    1
     8    10    11   am
     9    11    12    2
    10    11     1    1
    11     1     2   ar
    12     2     3   ar
    13     3     4   ar
    14     4    19    1
    15    19    20    1
    16    20    21    2
    17    20    22    2
    18    20    23    1
    19    23    24   ar
    20    24    25   ar
    21    25    26   ar
    22    26    27   ar
    23    27    28   ar
    24    28    29    1
    25    28    30   ar
    26    30    31   ar
    27    31    32   ar
    28     4     5   ar
    29     5     6   ar
    30    10    13    1
    31    13    14    1
    32    14     7    1
    33     6     1   ar
    34    32    23   ar
    35    31    26   ar
    36    29    33    1
    37    29    34    1
