@<TRIPOS>MOLECULE
*****
 43 48 0 0 0
SMALL
GASTEIGER

@<TRIPOS>ATOM
      1 O         137.8153  143.5329  162.7542 O.2     1  UNL1       -0.2616
      2 C         139.0607  142.9300  162.1750 C.2     1  UNL1        0.2903
      3 S         139.6473  143.2404  160.8299 S.3     1  UNL1       -0.0248
      4 C         140.8874  142.4131  160.6627 C.2     1  UNL1        0.0879
      5 C         141.7892  142.4084  159.4642 C.2     1  UNL1        0.0112
      6 C         141.0671  141.5914  161.9047 C.2     1  UNL1        0.2653
      7 O         142.1803  140.6206  162.1661 O.2     1  UNL1       -0.2686
      8 N         139.9382  141.9108  162.8393 N.am    1  UNL1       -0.1954
      9 C         141.4802  143.2887  158.2896 C.ar    1  UNL1        0.0008
     10 C         142.1616  144.6174  158.1483 C.ar    1  UNL1        0.0031
     11 C         141.8526  145.4977  156.9738 C.ar    1  UNL1        0.0375
     12 C         140.8622  145.0491  155.9404 C.ar    1  UNL1        0.1453
     13 C         140.1807  143.7203  156.0816 C.ar    1  UNL1        0.0375
     14 C         140.4898  142.8401  157.2562 C.ar    1  UNL1        0.0031
     15 O         140.5531  145.9294  154.7658 O.3     1  UNL1       -0.4535
     16 C         139.9562  147.2881  154.9834 C.ar    1  UNL1        0.1454
     17 C         140.2414  148.3967  154.0139 C.ar    1  UNL1        0.0398
     18 C         139.6443  149.7555  154.2315 C.ar    1  UNL1        0.0328
     19 C         138.7621  150.0057  155.4185 C.ar    1  UNL1        0.1403
     20 F         138.1651  151.3644  155.6361 F       1  UNL1       -0.2042
     21 C         138.4769  148.8972  156.3880 C.ar    1  UNL1        0.0328
     22 C         139.0739  147.5384  156.1704 C.ar    1  UNL1        0.0398
     23 C         139.7244  141.3156  164.1995 C.ar    1  UNL1        0.0619
     24 C         139.9603  142.1451  165.4267 C.ar    1  UNL1        0.0185
     25 C         139.7464  141.5498  166.7868 C.ar    1  UNL1        0.0382
     26 C         139.2967  140.1250  166.9196 C.ar    1  UNL1        0.1386
     27 C         139.0608  139.2955  165.6923 C.ar    1  UNL1        0.0382
     28 C         139.2746  139.8907  164.3322 C.ar    1  UNL1        0.0185
     29 O         139.0828  139.5297  168.2798 O.3     1  UNL1       -0.4755
     30 C         139.2249  140.3852  169.5037 C.3     1  UNL1        0.2054
     31 C         140.1655  139.9776  170.5986 C.3     1  UNL1        0.0488
     32 C         141.6465  140.1167  170.4055 C.3     1  UNL1        0.0212
     33 C         142.3233  139.4159  169.2650 C.3     1  UNL1        0.0723
     34 N         142.7329  140.1890  168.0466 N.3     1  UNL1       -0.2703
     35 C         142.9909  141.6633  168.1454 C.3     1  UNL1        0.0897
     36 C         143.4006  142.4363  166.9270 C.3     1  UNL1        0.0897
     37 N         143.5521  141.7350  165.6096 N.3     1  UNL1       -0.2703
     38 C         143.2940  140.2607  165.5108 C.3     1  UNL1        0.0897
     39 C         142.8844  139.4876  166.7292 C.3     1  UNL1        0.0897
     40 C         143.9617  142.5081  164.3913 C.3     1  UNL1        0.0721
     41 C         143.3028  143.8187  164.0780 C.3     1  UNL1        0.0160
     42 C         142.0739  144.6780  164.0378 C.3     1  UNL1        0.0014
     43 C         143.3902  145.2294  163.5758 C.3     1  UNL1        0.0014
@<TRIPOS>BOND
     1     1     2    2
     2     2     3    1
     3     3     4    1
     4     4     5    2
     5     5     9    1
     6     9    10   ar
     7    10    11   ar
     8    11    12   ar
     9    12    15    1
    10    15    16    1
    11    16    17   ar
    12    17    18   ar
    13    18    19   ar
    14    19    20    1
    15    19    21   ar
    16    21    22   ar
    17    12    13   ar
    18    13    14   ar
    19     4     6    1
    20     6     7    2
    21     6     8   am
    22     8    23    1
    23    23    24   ar
    24    24    25   ar
    25    25    26   ar
    26    26    29    1
    27    29    30    1
    28    30    31    1
    29    31    32    1
    30    32    33    1
    31    33    34    1
    32    34    35    1
    33    35    36    1
    34    36    37    1
    35    37    40    1
    36    40    41    1
    37    41    42    1
    38    42    43    1
    39    37    38    1
    40    38    39    1
    41    26    27   ar
    42    27    28   ar
    43     8     2   am
    44    28    23   ar
    45    14     9   ar
    46    39    34    1
    47    22    16   ar
    48    43    41    1
@<TRIPOS>MOLECULE
*****
 43 48 0 0 0
SMALL
GASTEIGER

@<TRIPOS>ATOM
      1 O         140.4096  145.9498  162.8645 O.2     1  UNL1       -0.2616
      2 C         140.9864  144.8671  162.0013 C.2     1  UNL1        0.2903
      3 S         140.9884  144.8424  160.5015 S.3     1  UNL1       -0.0248
      4 C         141.6657  143.5791  160.0596 C.2     1  UNL1        0.0879
      5 C         141.8875  143.1475  158.6403 C.2     1  UNL1        0.0112
      6 C         142.0823  142.8230  161.2864 C.2     1  UNL1        0.2653
      7 O         142.7938  141.5027  161.3091 O.2     1  UNL1       -0.2686
      8 N         141.6625  143.6190  162.4864 N.am    1  UNL1       -0.1954
      9 C         141.4129  144.0127  157.5105 C.ar    1  UNL1        0.0008
     10 C         140.0217  143.8493  156.9740 C.ar    1  UNL1        0.0031
     11 C         139.5471  144.7145  155.8443 C.ar    1  UNL1        0.0375
     12 C         140.4638  145.7430  155.2511 C.ar    1  UNL1        0.1453
     13 C         141.8550  145.9063  155.7875 C.ar    1  UNL1        0.0375
     14 C         142.3295  145.0412  156.9172 C.ar    1  UNL1        0.0031
     15 O         139.9891  146.6081  154.1213 O.3     1  UNL1       -0.4535
     16 C         139.6013  148.0338  154.3801 C.ar    1  UNL1        0.1454
     17 C         139.9624  149.1009  153.3898 C.ar    1  UNL1        0.0398
     18 C         139.5745  150.5266  153.6487 C.ar    1  UNL1        0.0328
     19 C         138.8256  150.8851  154.8979 C.ar    1  UNL1        0.1403
     20 F         138.4377  152.3108  155.1568 F       1  UNL1       -0.2042
     21 C         138.4644  149.8179  155.8882 C.ar    1  UNL1        0.0328
     22 C         138.8523  148.3923  155.6294 C.ar    1  UNL1        0.0398
     23 C         141.8804  143.2345  163.9198 C.ar    1  UNL1        0.0619
     24 C         140.7104  143.1164  164.8508 C.ar    1  UNL1        0.0185
     25 C         140.9284  142.7319  166.2842 C.ar    1  UNL1        0.0382
     26 C         142.3165  142.4655  166.7865 C.ar    1  UNL1        0.1386
     27 C         143.4865  142.5836  165.8554 C.ar    1  UNL1        0.0382
     28 C         143.2686  142.9681  164.4220 C.ar    1  UNL1        0.0185
     29 O         142.5345  142.0809  168.2199 O.3     1  UNL1       -0.4755
     30 C         142.8523  140.6586  168.5749 C.3     1  UNL1        0.2054
     31 C         142.3041  139.5376  167.7426 C.3     1  UNL1        0.0488
     32 C         143.1919  138.8256  166.7653 C.3     1  UNL1        0.0212
     33 C         142.5990  137.8740  165.7688 C.3     1  UNL1        0.0723
     34 N         141.4977  138.3309  164.8586 N.3     1  UNL1       -0.2703
     35 C         141.6622  139.5858  164.0535 C.3     1  UNL1        0.0897
     36 C         140.5610  140.0427  163.1433 C.3     1  UNL1        0.0897
     37 N         139.2951  139.2447  163.0383 N.3     1  UNL1       -0.2703
     38 C         139.1306  137.9899  163.8435 C.3     1  UNL1        0.0897
     39 C         140.2318  137.5330  164.7537 C.3     1  UNL1        0.0897
     40 C         138.1939  139.7016  162.1282 C.3     1  UNL1        0.0721
     41 C         138.1374  141.1315  161.6783 C.3     1  UNL1        0.0160
     42 C         138.2237  142.1532  160.5834 C.3     1  UNL1        0.0014
     43 C         137.9533  142.5863  161.9939 C.3     1  UNL1        0.0014
@<TRIPOS>BOND
     1     1     2    2
     2     2     3    1
     3     3     4    1
     4     4     5    2
     5     5     9    1
     6     9    10   ar
     7    10    11   ar
     8    11    12   ar
     9    12    15    1
    10    15    16    1
    11    16    17   ar
    12    17    18   ar
    13    18    19   ar
    14    19    20    1
    15    19    21   ar
    16    21    22   ar
    17    12    13   ar
    18    13    14   ar
    19     4     6    1
    20     6     7    2
    21     6     8   am
    22     8    23    1
    23    23    24   ar
    24    24    25   ar
    25    25    26   ar
    26    26    29    1
    27    29    30    1
    28    30    31    1
    29    31    32    1
    30    32    33    1
    31    33    34    1
    32    34    35    1
    33    35    36    1
    34    36    37    1
    35    37    40    1
    36    40    41    1
    37    41    42    1
    38    42    43    1
    39    37    38    1
    40    38    39    1
    41    26    27   ar
    42    27    28   ar
    43     8     2   am
    44    28    23   ar
    45    14     9   ar
    46    39    34    1
    47    22    16   ar
    48    43    41    1
@<TRIPOS>MOLECULE
*****
 43 48 0 0 0
SMALL
GASTEIGER

@<TRIPOS>ATOM
      1 O         138.7617  143.6466  160.9540 O.2     1  UNL1       -0.2616
      2 C         138.9802  142.1658  161.0515 C.2     1  UNL1        0.2903
      3 S         139.1342  141.3788  162.3191 S.3     1  UNL1       -0.0248
      4 C         139.3322  139.9386  161.9495 C.2     1  UNL1        0.0879
      5 C         139.5275  138.8013  162.9078 C.2     1  UNL1        0.0112
      6 C         139.3008  139.8356  160.4534 C.2     1  UNL1        0.2653
      7 O         139.4590  138.5770  159.6529 O.2     1  UNL1       -0.2686
      8 N         139.0832  141.2120  159.8984 N.am    1  UNL1       -0.1954
      9 C         139.5360  139.0586  164.3856 C.ar    1  UNL1        0.0008
     10 C         138.2968  138.8183  165.1958 C.ar    1  UNL1        0.0031
     11 C         138.3053  139.0757  166.6735 C.ar    1  UNL1        0.0375
     12 C         139.5530  139.5734  167.3410 C.ar    1  UNL1        0.1453
     13 C         140.7922  139.8138  166.5307 C.ar    1  UNL1        0.0375
     14 C         140.7837  139.5564  165.0530 C.ar    1  UNL1        0.0031
     15 O         139.5615  139.8308  168.8188 O.3     1  UNL1       -0.4535
     16 C         140.5321  140.8137  169.4033 C.ar    1  UNL1        0.1454
     17 C         140.2580  142.2854  169.3084 C.ar    1  UNL1        0.0398
     18 C         141.2287  143.2683  169.8930 C.ar    1  UNL1        0.0328
     19 C         142.4734  142.7796  170.5724 C.ar    1  UNL1        0.1403
     20 F         143.4440  143.7625  171.1570 F       1  UNL1       -0.2042
     21 C         142.7475  141.3079  170.6674 C.ar    1  UNL1        0.0328
     22 C         141.7769  140.3250  170.0828 C.ar    1  UNL1        0.0398
     23 C         138.9857  141.5715  158.4454 C.ar    1  UNL1        0.0619
     24 C         140.1630  141.3611  157.5401 C.ar    1  UNL1        0.0185
     25 C         140.0656  141.7206  156.0871 C.ar    1  UNL1        0.0382
     26 C         138.7907  142.2905  155.5394 C.ar    1  UNL1        0.1386
     27 C         137.6134  142.5009  156.4447 C.ar    1  UNL1        0.0382
     28 C         137.7108  142.1414  157.8977 C.ar    1  UNL1        0.0185
     29 O         138.6932  142.6500  154.0863 O.3     1  UNL1       -0.4755
     30 C         138.9866  144.0514  153.6391 C.3     1  UNL1        0.2054
     31 C         140.3345  144.6553  153.9005 C.3     1  UNL1        0.0488
     32 C         140.5914  145.3896  155.1830 C.3     1  UNL1        0.0212
     33 C         141.9462  145.3284  155.8238 C.3     1  UNL1        0.0723
     34 N         142.0837  144.8678  157.2448 N.3     1  UNL1       -0.2703
     35 C         142.9820  143.7129  157.5753 C.3     1  UNL1        0.0897
     36 C         143.1195  143.2524  158.9962 C.3     1  UNL1        0.0897
     37 N         142.3587  143.9468  160.0866 N.3     1  UNL1       -0.2703
     38 C         141.4604  145.1017  159.7562 C.3     1  UNL1        0.0897
     39 C         141.3229  145.5623  158.3352 C.3     1  UNL1        0.0897
     40 C         142.4962  143.4863  161.5075 C.3     1  UNL1        0.0721
     41 C         141.9532  144.3275  162.6245 C.3     1  UNL1        0.0160
     42 C         140.8345  144.6806  163.5592 C.3     1  UNL1        0.0014
     43 C         142.1314  145.4314  163.6242 C.3     1  UNL1        0.0014
@<TRIPOS>BOND
     1     1     2    2
     2     2     3    1
     3     3     4    1
     4     4     5    2
     5     5     9    1
     6     9    10   ar
     7    10    11   ar
     8    11    12   ar
     9    12    15    1
    10    15    16    1
    11    16    17   ar
    12    17    18   ar
    13    18    19   ar
    14    19    20    1
    15    19    21   ar
    16    21    22   ar
    17    12    13   ar
    18    13    14   ar
    19     4     6    1
    20     6     7    2
    21     6     8   am
    22     8    23    1
    23    23    24   ar
    24    24    25   ar
    25    25    26   ar
    26    26    29    1
    27    29    30    1
    28    30    31    1
    29    31    32    1
    30    32    33    1
    31    33    34    1
    32    34    35    1
    33    35    36    1
    34    36    37    1
    35    37    40    1
    36    40    41    1
    37    41    42    1
    38    42    43    1
    39    37    38    1
    40    38    39    1
    41    26    27   ar
    42    27    28   ar
    43     8     2   am
    44    28    23   ar
    45    14     9   ar
    46    39    34    1
    47    22    16   ar
    48    43    41    1
@<TRIPOS>MOLECULE
*****
 43 48 0 0 0
SMALL
GASTEIGER

@<TRIPOS>ATOM
      1 O         142.0580  140.0994  162.1534 O.2     1  UNL1       -0.2616
      2 C         141.1373  141.2626  161.9311 C.2     1  UNL1        0.2903
      3 S         141.0794  142.1187  160.7008 S.3     1  UNL1       -0.0248
      4 C         140.0192  143.1590  160.9094 C.2     1  UNL1        0.0879
      5 C         139.6255  144.2253  159.9306 C.2     1  UNL1        0.0112
      6 C         139.4218  142.9459  162.2687 C.2     1  UNL1        0.2653
      7 O         138.3258  143.7616  162.8878 O.2     1  UNL1       -0.2686
      8 N         140.1128  141.7738  162.9002 N.am    1  UNL1       -0.1954
      9 C         140.3159  144.3156  158.6019 C.ar    1  UNL1        0.0008
     10 C         141.4732  145.2524  158.4202 C.ar    1  UNL1        0.0031
     11 C         142.1635  145.3428  157.0917 C.ar    1  UNL1        0.0375
     12 C         141.6966  144.4963  155.9447 C.ar    1  UNL1        0.1453
     13 C         140.5393  143.5595  156.1264 C.ar    1  UNL1        0.0375
     14 C         139.8489  143.4691  157.4550 C.ar    1  UNL1        0.0031
     15 O         142.3870  144.5866  154.6161 O.3     1  UNL1       -0.4535
     16 C         143.8015  144.1087  154.4718 C.ar    1  UNL1        0.1454
     17 C         144.2779  142.9263  155.2624 C.ar    1  UNL1        0.0398
     18 C         145.6925  142.4484  155.1181 C.ar    1  UNL1        0.0328
     19 C         146.6305  143.1529  154.1833 C.ar    1  UNL1        0.1403
     20 F         148.0449  142.6750  154.0391 F       1  UNL1       -0.2042
     21 C         146.1540  144.3353  153.3928 C.ar    1  UNL1        0.0328
     22 C         144.7395  144.8132  153.5370 C.ar    1  UNL1        0.0398
     23 C         139.8291  141.2117  164.2616 C.ar    1  UNL1        0.0619
     24 C         140.0156  142.0667  165.4798 C.ar    1  UNL1        0.0185
     25 C         139.7320  141.5047  166.8412 C.ar    1  UNL1        0.0382
     26 C         139.2618  140.0875  166.9844 C.ar    1  UNL1        0.1386
     27 C         139.0753  139.2324  165.7662 C.ar    1  UNL1        0.0382
     28 C         139.3590  139.7945  164.4047 C.ar    1  UNL1        0.0185
     29 O         138.9781  139.5253  168.3459 O.3     1  UNL1       -0.4755
     30 C         139.0571  140.4106  169.5543 C.3     1  UNL1        0.2054
     31 C         140.1832  140.2470  170.5314 C.3     1  UNL1        0.0488
     32 C         141.3616  139.3878  170.1807 C.3     1  UNL1        0.0212
     33 C         142.6801  140.0218  169.8495 C.3     1  UNL1        0.0723
     34 N         142.9173  140.5881  168.4809 N.3     1  UNL1       -0.2703
     35 C         142.9175  139.6833  167.2846 C.3     1  UNL1        0.0897
     36 C         143.1547  140.2495  165.9160 C.3     1  UNL1        0.0897
     37 N         143.3917  141.7207  165.7437 N.3     1  UNL1       -0.2703
     38 C         143.3915  142.6256  166.9401 C.3     1  UNL1        0.0897
     39 C         143.1543  142.0593  168.3087 C.3     1  UNL1        0.0897
     40 C         143.6289  142.2869  164.3752 C.3     1  UNL1        0.0721
     41 C         143.2334  143.7013  164.0698 C.3     1  UNL1        0.0160
     42 C         142.1677  144.7378  163.8699 C.3     1  UNL1        0.0014
     43 C         143.6138  145.1144  163.7408 C.3     1  UNL1        0.0014
@<TRIPOS>BOND
     1     1     2    2
     2     2     3    1
     3     3     4    1
     4     4     5    2
     5     5     9    1
     6     9    10   ar
     7    10    11   ar
     8    11    12   ar
     9    12    15    1
    10    15    16    1
    11    16    17   ar
    12    17    18   ar
    13    18    19   ar
    14    19    20    1
    15    19    21   ar
    16    21    22   ar
    17    12    13   ar
    18    13    14   ar
    19     4     6    1
    20     6     7    2
    21     6     8   am
    22     8    23    1
    23    23    24   ar
    24    24    25   ar
    25    25    26   ar
    26    26    29    1
    27    29    30    1
    28    30    31    1
    29    31    32    1
    30    32    33    1
    31    33    34    1
    32    34    35    1
    33    35    36    1
    34    36    37    1
    35    37    40    1
    36    40    41    1
    37    41    42    1
    38    42    43    1
    39    37    38    1
    40    38    39    1
    41    26    27   ar
    42    27    28   ar
    43     8     2   am
    44    28    23   ar
    45    14     9   ar
    46    39    34    1
    47    22    16   ar
    48    43    41    1
@<TRIPOS>MOLECULE
*****
 43 48 0 0 0
SMALL
GASTEIGER

@<TRIPOS>ATOM
      1 O         142.9101  137.7044  160.8768 O.2     1  UNL1       -0.2616
      2 C         141.5554  138.3435  160.9571 C.2     1  UNL1        0.2903
      3 S         140.8550  138.7705  162.2130 S.3     1  UNL1       -0.0248
      4 C         139.5301  139.3587  161.8278 C.2     1  UNL1        0.0879
      5 C         138.5038  139.9130  162.7709 C.2     1  UNL1        0.0112
      6 C         139.4116  139.2953  160.3338 C.2     1  UNL1        0.2653
      7 O         138.2460  139.7751  159.5207 O.2     1  UNL1       -0.2686
      8 N         140.6633  138.6679  159.7957 N.am    1  UNL1       -0.1954
      9 C         138.7633  139.9093  164.2483 C.ar    1  UNL1        0.0008
     10 C         139.4415  141.0812  164.8937 C.ar    1  UNL1        0.0031
     11 C         139.7009  141.0774  166.3710 C.ar    1  UNL1        0.0375
     12 C         139.2822  139.9016  167.2030 C.ar    1  UNL1        0.1453
     13 C         138.6041  138.7297  166.5577 C.ar    1  UNL1        0.0375
     14 C         138.3446  138.7335  165.0803 C.ar    1  UNL1        0.0031
     15 O         139.5418  139.8978  168.6805 O.3     1  UNL1       -0.4535
     16 C         140.5365  140.8535  169.2697 C.ar    1  UNL1        0.1454
     17 C         141.9815  140.4641  169.3710 C.ar    1  UNL1        0.0398
     18 C         142.9763  141.4199  169.9602 C.ar    1  UNL1        0.0328
     19 C         142.5260  142.7649  170.4481 C.ar    1  UNL1        0.1403
     20 F         143.5207  143.7205  171.0373 F       1  UNL1       -0.2042
     21 C         141.0809  143.1543  170.3468 C.ar    1  UNL1        0.0328
     22 C         140.0862  142.1986  169.7576 C.ar    1  UNL1        0.0398
     23 C         140.9691  138.4101  158.3500 C.ar    1  UNL1        0.0619
     24 C         139.9766  137.6840  157.4914 C.ar    1  UNL1        0.0185
     25 C         140.2825  137.4262  156.0457 C.ar    1  UNL1        0.0382
     26 C         141.5809  137.8947  155.4587 C.ar    1  UNL1        0.1386
     27 C         142.5735  138.6209  156.3175 C.ar    1  UNL1        0.0382
     28 C         142.2677  138.8786  157.7631 C.ar    1  UNL1        0.0185
     29 O         141.8869  137.6369  154.0130 O.3     1  UNL1       -0.4755
     30 C         140.9504  136.8083  153.1844 C.3     1  UNL1        0.2054
     31 C         141.2735  135.3719  152.8981 C.3     1  UNL1        0.0488
     32 C         142.2329  134.6288  153.7797 C.3     1  UNL1        0.0212
     33 C         141.8741  134.3468  155.2086 C.3     1  UNL1        0.0723
     34 N         142.6009  133.2762  155.9673 N.3     1  UNL1       -0.2703
     35 C         142.2342  131.8354  155.7683 C.3     1  UNL1        0.0897
     36 C         142.9611  130.7648  156.5269 C.3     1  UNL1        0.0897
     37 N         144.0547  131.1351  157.4846 N.3     1  UNL1       -0.2703
     38 C         144.4215  132.5759  157.6835 C.3     1  UNL1        0.0897
     39 C         143.6946  133.6465  156.9249 C.3     1  UNL1        0.0897
     40 C         144.7815  130.0646  158.2431 C.3     1  UNL1        0.0721
     41 C         144.0165  128.9305  158.8586 C.3     1  UNL1        0.0160
     42 C         143.1720  127.7000  158.7076 C.3     1  UNL1        0.0014
     43 C         143.5360  128.1967  160.0754 C.3     1  UNL1        0.0014
@<TRIPOS>BOND
     1     1     2    2
     2     2     3    1
     3     3     4    1
     4     4     5    2
     5     5     9    1
     6     9    10   ar
     7    10    11   ar
     8    11    12   ar
     9    12    15    1
    10    15    16    1
    11    16    17   ar
    12    17    18   ar
    13    18    19   ar
    14    19    20    1
    15    19    21   ar
    16    21    22   ar
    17    12    13   ar
    18    13    14   ar
    19     4     6    1
    20     6     7    2
    21     6     8   am
    22     8    23    1
    23    23    24   ar
    24    24    25   ar
    25    25    26   ar
    26    26    29    1
    27    29    30    1
    28    30    31    1
    29    31    32    1
    30    32    33    1
    31    33    34    1
    32    34    35    1
    33    35    36    1
    34    36    37    1
    35    37    40    1
    36    40    41    1
    37    41    42    1
    38    42    43    1
    39    37    38    1
    40    38    39    1
    41    26    27   ar
    42    27    28   ar
    43     8     2   am
    44    28    23   ar
    45    14     9   ar
    46    39    34    1
    47    22    16   ar
    48    43    41    1
@<TRIPOS>MOLECULE
*****
 43 48 0 0 0
SMALL
GASTEIGER

@<TRIPOS>ATOM
      1 O         141.1712  136.5417  163.4222 O.2     1  UNL1       -0.2616
      2 C         140.7390  137.7770  162.6893 C.2     1  UNL1        0.2903
      3 S         140.8566  138.0126  161.2126 S.3     1  UNL1       -0.0248
      4 C         140.3036  139.3748  160.9150 C.2     1  UNL1        0.0879
      5 C         140.2239  140.0178  159.5622 C.2     1  UNL1        0.0112
      6 C         139.8442  139.9811  162.2078 C.2     1  UNL1        0.2653
      7 O         139.2246  141.3369  162.3748 O.2     1  UNL1       -0.2686
      8 N         140.1134  138.9936  163.3044 N.am    1  UNL1       -0.1954
      9 C         140.7260  139.2856  158.3530 C.ar    1  UNL1        0.0008
     10 C         139.8174  138.3502  157.6118 C.ar    1  UNL1        0.0031
     11 C         140.3195  137.6181  156.4027 C.ar    1  UNL1        0.0375
     12 C         141.7301  137.8214  155.9349 C.ar    1  UNL1        0.1453
     13 C         142.6386  138.7568  156.6761 C.ar    1  UNL1        0.0375
     14 C         142.1366  139.4889  157.8852 C.ar    1  UNL1        0.0031
     15 O         142.2321  137.0892  154.7257 O.3     1  UNL1       -0.4535
     16 C         142.6146  135.6426  154.8301 C.ar    1  UNL1        0.1454
     17 C         143.5057  135.1810  155.9449 C.ar    1  UNL1        0.0398
     18 C         143.8882  133.7343  156.0492 C.ar    1  UNL1        0.0328
     19 C         143.3796  132.7493  155.0387 C.ar    1  UNL1        0.1403
     20 F         143.7620  131.3027  155.1431 F       1  UNL1       -0.2042
     21 C         142.4884  133.2109  153.9240 C.ar    1  UNL1        0.0328
     22 C         142.1059  134.6575  153.8196 C.ar    1  UNL1        0.0398
     23 C         139.8100  139.1886  164.7604 C.ar    1  UNL1        0.0619
     24 C         140.9293  139.2650  165.7560 C.ar    1  UNL1        0.0185
     25 C         140.6260  139.4599  167.2120 C.ar    1  UNL1        0.0382
     26 C         139.2033  139.5784  167.6724 C.ar    1  UNL1        0.1386
     27 C         138.0840  139.5020  166.6767 C.ar    1  UNL1        0.0382
     28 C         138.3873  139.3071  165.2207 C.ar    1  UNL1        0.0185
     29 O         138.8999  139.7734  169.1285 O.3     1  UNL1       -0.4755
     30 C         140.0168  139.8083  170.1291 C.3     1  UNL1        0.2054
     31 C         140.2289  141.0294  170.9740 C.3     1  UNL1        0.0488
     32 C         141.5714  141.6979  171.0024 C.3     1  UNL1        0.0212
     33 C         141.8254  142.9068  170.1516 C.3     1  UNL1        0.0723
     34 N         141.8828  142.7745  168.6585 N.3     1  UNL1       -0.2703
     35 C         140.6520  143.0172  167.8362 C.3     1  UNL1        0.0897
     36 C         140.7093  142.8849  166.3431 C.3     1  UNL1        0.0897
     37 N         141.9976  142.5099  165.6724 N.3     1  UNL1       -0.2703
     38 C         143.2284  142.2672  166.4946 C.3     1  UNL1        0.0897
     39 C         143.1711  142.3995  167.9877 C.3     1  UNL1        0.0897
     40 C         142.0550  142.3776  164.1794 C.3     1  UNL1        0.0721
     41 C         143.1135  141.5272  163.5419 C.3     1  UNL1        0.0160
     42 C         144.5609  141.2388  163.2734 C.3     1  UNL1        0.0014
     43 C         143.4998  140.3429  162.7064 C.3     1  UNL1        0.0014
@<TRIPOS>BOND
     1     1     2    2
     2     2     3    1
     3     3     4    1
     4     4     5    2
     5     5     9    1
     6     9    10   ar
     7    10    11   ar
     8    11    12   ar
     9    12    15    1
    10    15    16    1
    11    16    17   ar
    12    17    18   ar
    13    18    19   ar
    14    19    20    1
    15    19    21   ar
    16    21    22   ar
    17    12    13   ar
    18    13    14   ar
    19     4     6    1
    20     6     7    2
    21     6     8   am
    22     8    23    1
    23    23    24   ar
    24    24    25   ar
    25    25    26   ar
    26    26    29    1
    27    29    30    1
    28    30    31    1
    29    31    32    1
    30    32    33    1
    31    33    34    1
    32    34    35    1
    33    35    36    1
    34    36    37    1
    35    37    40    1
    36    40    41    1
    37    41    42    1
    38    42    43    1
    39    37    38    1
    40    38    39    1
    41    26    27   ar
    42    27    28   ar
    43     8     2   am
    44    28    23   ar
    45    14     9   ar
    46    39    34    1
    47    22    16   ar
    48    43    41    1
@<TRIPOS>MOLECULE
*****
 43 48 0 0 0
SMALL
GASTEIGER

@<TRIPOS>ATOM
      1 O         138.5969  139.3960  158.0507 O.2     1  UNL1       -0.2616
      2 C         140.0221  138.9283  158.0559 C.2     1  UNL1        0.2903
      3 S         140.6066  137.8719  157.1657 S.3     1  UNL1       -0.0248
      4 C         142.0588  137.7256  157.5118 C.2     1  UNL1        0.0879
      5 C         143.0278  136.7794  156.8670 C.2     1  UNL1        0.0112
      6 C         142.3717  138.6915  158.6159 C.2     1  UNL1        0.2653
      7 O         143.7087  138.8809  159.2691 O.2     1  UNL1       -0.2686
      8 N         141.1130  139.4348  158.9522 N.am    1  UNL1       -0.1954
      9 C         142.5675  135.8677  155.7684 C.ar    1  UNL1        0.0008
     10 C         142.1949  134.4482  156.0785 C.ar    1  UNL1        0.0031
     11 C         141.7346  133.5365  154.9799 C.ar    1  UNL1        0.0375
     12 C         141.6470  134.0443  153.5712 C.ar    1  UNL1        0.1453
     13 C         142.0197  135.4638  153.2611 C.ar    1  UNL1        0.0375
     14 C         142.4800  136.3754  154.3597 C.ar    1  UNL1        0.0031
     15 O         141.1867  133.1325  152.4726 O.3     1  UNL1       -0.4535
     16 C         141.1626  131.6486  152.6902 C.ar    1  UNL1        0.1454
     17 C         139.8829  130.9679  153.0762 C.ar    1  UNL1        0.0398
     18 C         139.8588  129.4839  153.2938 C.ar    1  UNL1        0.0328
     19 C         141.1144  128.6807  153.1254 C.ar    1  UNL1        0.1403
     20 F         141.0902  127.1968  153.3429 F       1  UNL1       -0.2042
     21 C         142.3940  129.3614  152.7393 C.ar    1  UNL1        0.0328
     22 C         142.4182  130.8453  152.5217 C.ar    1  UNL1        0.0398
     23 C         140.9703  140.4980  160.0006 C.ar    1  UNL1        0.0619
     24 C         140.1072  140.2546  161.2029 C.ar    1  UNL1        0.0185
     25 C         139.9644  141.3178  162.2514 C.ar    1  UNL1        0.0382
     26 C         140.6849  142.6244  162.0975 C.ar    1  UNL1        0.1386
     27 C         141.5481  142.8678  160.8951 C.ar    1  UNL1        0.0382
     28 C         141.6908  141.8046  159.8466 C.ar    1  UNL1        0.0185
     29 O         140.5422  143.6876  163.1460 O.3     1  UNL1       -0.4755
     30 C         141.3031  144.9740  163.0180 C.3     1  UNL1        0.2054
     31 C         142.6061  145.1496  163.7399 C.3     1  UNL1        0.0488
     32 C         143.8339  144.4370  163.2554 C.3     1  UNL1        0.0212
     33 C         144.3997  143.2951  164.0466 C.3     1  UNL1        0.0723
     34 N         143.7385  141.9495  163.9992 N.3     1  UNL1       -0.2703
     35 C         144.0450  141.0024  162.8772 C.3     1  UNL1        0.0897
     36 C         143.3838  139.6567  162.8299 C.3     1  UNL1        0.0897
     37 N         142.4162  139.2583  163.9047 N.3     1  UNL1       -0.2703
     38 C         142.1098  140.2054  165.0267 C.3     1  UNL1        0.0897
     39 C         142.7709  141.5510  165.0740 C.3     1  UNL1        0.0897
     40 C         141.7551  137.9127  163.8574 C.3     1  UNL1        0.0721
     41 C         140.2756  137.7959  164.0752 C.3     1  UNL1        0.0160
     42 C         138.8844  137.7030  163.5219 C.3     1  UNL1        0.0014
     43 C         139.1042  137.6865  165.0056 C.3     1  UNL1        0.0014
@<TRIPOS>BOND
     1     1     2    2
     2     2     3    1
     3     3     4    1
     4     4     5    2
     5     5     9    1
     6     9    10   ar
     7    10    11   ar
     8    11    12   ar
     9    12    15    1
    10    15    16    1
    11    16    17   ar
    12    17    18   ar
    13    18    19   ar
    14    19    20    1
    15    19    21   ar
    16    21    22   ar
    17    12    13   ar
    18    13    14   ar
    19     4     6    1
    20     6     7    2
    21     6     8   am
    22     8    23    1
    23    23    24   ar
    24    24    25   ar
    25    25    26   ar
    26    26    29    1
    27    29    30    1
    28    30    31    1
    29    31    32    1
    30    32    33    1
    31    33    34    1
    32    34    35    1
    33    35    36    1
    34    36    37    1
    35    37    40    1
    36    40    41    1
    37    41    42    1
    38    42    43    1
    39    37    38    1
    40    38    39    1
    41    26    27   ar
    42    27    28   ar
    43     8     2   am
    44    28    23   ar
    45    14     9   ar
    46    39    34    1
    47    22    16   ar
    48    43    41    1
@<TRIPOS>MOLECULE
*****
 43 48 0 0 0
SMALL
GASTEIGER

@<TRIPOS>ATOM
      1 O         141.9472  145.1379  159.1783 O.2     1  UNL1       -0.2616
      2 C         140.9359  145.0744  158.0724 C.2     1  UNL1        0.2903
      3 S         140.5309  146.2113  157.1816 S.3     1  UNL1       -0.0248
      4 C         139.4966  145.7024  156.2217 C.2     1  UNL1        0.0879
      5 C         138.8161  146.5041  155.1521 C.2     1  UNL1        0.0112
      6 C         139.2624  144.2510  156.5193 C.2     1  UNL1        0.2653
      7 O         138.3065  143.3465  155.7995 O.2     1  UNL1       -0.2686
      8 N         140.1519  143.8628  157.6631 N.am    1  UNL1       -0.1954
      9 C         139.1548  147.9543  154.9718 C.ar    1  UNL1        0.0008
     10 C         140.0800  148.3769  153.8694 C.ar    1  UNL1        0.0031
     11 C         140.4186  149.8270  153.6891 C.ar    1  UNL1        0.0375
     12 C         139.8321  150.8544  154.6113 C.ar    1  UNL1        0.1453
     13 C         138.9070  150.4318  155.7137 C.ar    1  UNL1        0.0375
     14 C         138.5683  148.9817  155.8940 C.ar    1  UNL1        0.0031
     15 O         140.1708  152.3046  154.4310 O.3     1  UNL1       -0.4535
     16 C         141.4808  152.6978  153.8152 C.ar    1  UNL1        0.1454
     17 C         142.7594  152.1064  154.3304 C.ar    1  UNL1        0.0398
     18 C         144.0694  152.4997  153.7145 C.ar    1  UNL1        0.0328
     19 C         144.1008  153.4844  152.5835 C.ar    1  UNL1        0.1403
     20 F         145.4108  153.8777  151.9677 F       1  UNL1       -0.2042
     21 C         142.8222  154.0759  152.0683 C.ar    1  UNL1        0.0328
     22 C         141.5123  153.6827  152.6841 C.ar    1  UNL1        0.0398
     23 C         140.2416  142.5021  158.2878 C.ar    1  UNL1        0.0619
     24 C         141.3408  141.5637  157.8867 C.ar    1  UNL1        0.0185
     25 C         141.4306  140.2030  158.5114 C.ar    1  UNL1        0.0382
     26 C         140.4210  139.7807  159.5373 C.ar    1  UNL1        0.1386
     27 C         139.3217  140.7191  159.9384 C.ar    1  UNL1        0.0382
     28 C         139.2320  142.0799  159.3137 C.ar    1  UNL1        0.0185
     29 O         140.5107  138.4198  160.1621 O.3     1  UNL1       -0.4755
     30 C         141.4655  138.1752  161.2928 C.3     1  UNL1        0.2054
     31 C         140.9454  137.7602  162.6370 C.3     1  UNL1        0.0488
     32 C         139.4699  137.5975  162.8527 C.3     1  UNL1        0.0212
     33 C         138.7843  138.3554  163.9506 C.3     1  UNL1        0.0723
     34 N         138.7194  139.8532  163.9007 N.3     1  UNL1       -0.2703
     35 C         137.6280  140.5313  163.1268 C.3     1  UNL1        0.0897
     36 C         137.5631  142.0291  163.0769 C.3     1  UNL1        0.0897
     37 N         138.5897  142.8488  163.8010 N.3     1  UNL1       -0.2703
     38 C         139.6811  142.1707  164.5750 C.3     1  UNL1        0.0897
     39 C         139.7460  140.6730  164.6249 C.3     1  UNL1        0.0897
     40 C         138.5248  144.3465  163.7511 C.3     1  UNL1        0.0721
     41 C         139.5115  145.1127  162.9207 C.3     1  UNL1        0.0160
     42 C         140.9305  145.4618  162.5823 C.3     1  UNL1        0.0014
     43 C         139.8014  146.0906  161.8210 C.3     1  UNL1        0.0014
@<TRIPOS>BOND
     1     1     2    2
     2     2     3    1
     3     3     4    1
     4     4     5    2
     5     5     9    1
     6     9    10   ar
     7    10    11   ar
     8    11    12   ar
     9    12    15    1
    10    15    16    1
    11    16    17   ar
    12    17    18   ar
    13    18    19   ar
    14    19    20    1
    15    19    21   ar
    16    21    22   ar
    17    12    13   ar
    18    13    14   ar
    19     4     6    1
    20     6     7    2
    21     6     8   am
    22     8    23    1
    23    23    24   ar
    24    24    25   ar
    25    25    26   ar
    26    26    29    1
    27    29    30    1
    28    30    31    1
    29    31    32    1
    30    32    33    1
    31    33    34    1
    32    34    35    1
    33    35    36    1
    34    36    37    1
    35    37    40    1
    36    40    41    1
    37    41    42    1
    38    42    43    1
    39    37    38    1
    40    38    39    1
    41    26    27   ar
    42    27    28   ar
    43     8     2   am
    44    28    23   ar
    45    14     9   ar
    46    39    34    1
    47    22    16   ar
    48    43    41    1
@<TRIPOS>MOLECULE
*****
 43 48 0 0 0
SMALL
GASTEIGER

@<TRIPOS>ATOM
      1 O         138.8412  139.1357  157.8606 O.2     1  UNL1       -0.2616
      2 C         140.3003  138.8407  157.6763 C.2     1  UNL1        0.2903
      3 S         140.8766  137.6560  156.9591 S.3     1  UNL1       -0.0248
      4 C         142.3718  137.7617  157.0164 C.2     1  UNL1        0.0879
      5 C         143.3478  136.7882  156.4249 C.2     1  UNL1        0.0112
      6 C         142.7195  139.0117  157.7690 C.2     1  UNL1        0.2653
      7 O         144.1044  139.5079  158.0622 O.2     1  UNL1       -0.2686
      8 N         141.4394  139.6786  158.1768 N.am    1  UNL1       -0.1954
      9 C         142.8493  135.5758  155.6957 C.ar    1  UNL1        0.0008
     10 C         142.6009  134.2999  156.4441 C.ar    1  UNL1        0.0031
     11 C         142.1025  133.0876  155.7149 C.ar    1  UNL1        0.0375
     12 C         141.8524  133.1512  154.2373 C.ar    1  UNL1        0.1453
     13 C         142.1007  134.4272  153.4889 C.ar    1  UNL1        0.0375
     14 C         142.5992  135.6395  154.2181 C.ar    1  UNL1        0.0031
     15 O         141.3539  131.9388  153.5081 O.3     1  UNL1       -0.4535
     16 C         141.1671  130.6451  154.2439 C.ar    1  UNL1        0.1454
     17 C         139.7875  130.1798  154.6046 C.ar    1  UNL1        0.0398
     18 C         139.6007  128.8861  155.3404 C.ar    1  UNL1        0.0328
     19 C         140.7936  128.0577  155.7155 C.ar    1  UNL1        0.1403
     20 F         140.6068  126.7640  156.4513 F       1  UNL1       -0.2042
     21 C         142.1732  128.5229  155.3549 C.ar    1  UNL1        0.0328
     22 C         142.3600  129.8166  154.6191 C.ar    1  UNL1        0.0398
     23 C         141.3193  140.9587  158.9495 C.ar    1  UNL1        0.0619
     24 C         141.5993  142.2698  158.2769 C.ar    1  UNL1        0.0185
     25 C         141.4792  143.5498  159.0496 C.ar    1  UNL1        0.0382
     26 C         141.0792  143.5187  160.4949 C.ar    1  UNL1        0.1386
     27 C         140.7992  142.2075  161.1676 C.ar    1  UNL1        0.0382
     28 C         140.9192  140.9274  160.3949 C.ar    1  UNL1        0.0185
     29 O         140.9591  144.7988  161.2677 O.3     1  UNL1       -0.4755
     30 C         140.4863  144.7740  162.6911 C.3     1  UNL1        0.2054
     31 C         139.0200  144.8570  162.9957 C.3     1  UNL1        0.0488
     32 C         138.4993  144.3687  164.3151 C.3     1  UNL1        0.0212
     33 C         137.7249  143.0862  164.3875 C.3     1  UNL1        0.0723
     34 N         138.3980  141.7844  164.0676 N.3     1  UNL1       -0.2703
     35 C         137.7222  140.7916  163.1689 C.3     1  UNL1        0.0897
     36 C         138.3954  139.4899  162.8490 C.3     1  UNL1        0.0897
     37 N         139.7444  139.1810  163.4277 N.3     1  UNL1       -0.2703
     38 C         140.4202  140.1738  164.3264 C.3     1  UNL1        0.0897
     39 C         139.7470  141.4755  164.6463 C.3     1  UNL1        0.0897
     40 C         140.4175  137.8793  163.1078 C.3     1  UNL1        0.0721
     41 C         141.7199  137.8715  162.3635 C.3     1  UNL1        0.0160
     42 C         143.2057  138.0759  162.3434 C.3     1  UNL1        0.0014
     43 C         142.4897  137.6535  161.0948 C.3     1  UNL1        0.0014
@<TRIPOS>BOND
     1     1     2    2
     2     2     3    1
     3     3     4    1
     4     4     5    2
     5     5     9    1
     6     9    10   ar
     7    10    11   ar
     8    11    12   ar
     9    12    15    1
    10    15    16    1
    11    16    17   ar
    12    17    18   ar
    13    18    19   ar
    14    19    20    1
    15    19    21   ar
    16    21    22   ar
    17    12    13   ar
    18    13    14   ar
    19     4     6    1
    20     6     7    2
    21     6     8   am
    22     8    23    1
    23    23    24   ar
    24    24    25   ar
    25    25    26   ar
    26    26    29    1
    27    29    30    1
    28    30    31    1
    29    31    32    1
    30    32    33    1
    31    33    34    1
    32    34    35    1
    33    35    36    1
    34    36    37    1
    35    37    40    1
    36    40    41    1
    37    41    42    1
    38    42    43    1
    39    37    38    1
    40    38    39    1
    41    26    27   ar
    42    27    28   ar
    43     8     2   am
    44    28    23   ar
    45    14     9   ar
    46    39    34    1
    47    22    16   ar
    48    43    41    1
