@<TRIPOS>MOLECULE
*****
 26 28 0 0 0
SMALL
GASTEIGER

@<TRIPOS>ATOM
      1 C         145.0946  142.4036  164.0215 C.3     1  UNL1        0.0992
      2 C         145.1251  142.4932  161.4251 C.3     1  UNL1        0.0902
      3 N         144.7322  143.0962  162.7412 N.3     1  UNL1       -0.2639
      4 C         143.9770  144.3917  162.7771 C.3     1  UNL1        0.0994
      5 C         142.4856  144.3951  162.6158 C.ar    1  UNL1       -0.0062
      6 C         141.8796  144.3648  161.2441 C.ar    1  UNL1        0.0002
      7 C         140.3883  144.3682  161.0827 C.ar    1  UNL1        0.0363
      8 C         139.5030  144.4020  162.2932 C.ar    1  UNL1        0.1346
      9 C         140.1091  144.4323  163.6650 C.ar    1  UNL1        0.0153
     10 C         141.6004  144.4289  163.8263 C.ar    1  UNL1       -0.0041
     11 C         138.9915  144.4622  164.6650 C.3     1  UNL1        0.0767
     12 C         137.6947  144.4502  163.9112 C.3     1  UNL1        0.2102
     13 O         138.0108  144.4130  162.4454 O.3     1  UNL1       -0.4754
     14 C         144.0170  141.8492  164.9054 C.2     1  UNL1       -0.0087
     15 C         143.4716  142.6760  166.0318 C.2     1  UNL1       -0.0010
     16 C         142.3939  142.1216  166.9157 C.ar    1  UNL1        0.0272
     17 C         141.0718  141.7257  166.3283 C.ar    1  UNL1        0.0022
     18 C         139.9941  141.1713  167.2122 C.ar    1  UNL1        0.0040
     19 C         140.2386  141.0128  168.6836 C.ar    1  UNL1        0.0737
     20 C         141.5608  141.4086  169.2711 C.ar    1  UNL1        0.0335
     21 C         142.6384  141.9631  168.3872 C.ar    1  UNL1        0.1400
     22 F         143.9606  142.3590  168.9747 F       1  UNL1       -0.2042
     23 C         139.1610  140.4583  169.5675 C.3     1  UNL1        0.4186
     24 F         138.0833  139.9039  170.4513 F       1  UNL1       -0.1659
     25 F         139.6538  141.3079  170.7013 F       1  UNL1       -0.1659
     26 F         138.6681  139.6088  168.4337 F       1  UNL1       -0.1659
@<TRIPOS>BOND
     1     2     3    1
     2     3     1    1
     3     1    14    1
     4    14    15    2
     5    15    16    1
     6    16    17   ar
     7    17    18   ar
     8    18    19   ar
     9    19    23    1
    10    23    24    1
    11    23    25    1
    12    23    26    1
    13    19    20   ar
    14    20    21   ar
    15    21    22    1
    16     3     4    1
    17     4     5    1
    18     5     6   ar
    19     6     7   ar
    20     7     8   ar
    21     8     9   ar
    22     9    10   ar
    23     9    11    1
    24    11    12    1
    25    12    13    1
    26    21    16   ar
    27    10     5   ar
    28    13     8    1
@<TRIPOS>MOLECULE
*****
 26 28 0 0 0
SMALL
GASTEIGER

@<TRIPOS>ATOM
      1 C         144.8422  141.9896  163.8049 C.3     1  UNL1        0.0992
      2 C         144.9943  142.5588  161.2746 C.3     1  UNL1        0.0902
      3 N         144.5858  142.9341  162.6682 N.3     1  UNL1       -0.2639
      4 C         143.9211  144.2540  162.9251 C.3     1  UNL1        0.0994
      5 C         142.4242  144.3519  162.9279 C.ar    1  UNL1       -0.0062
      6 C         141.6837  144.5574  161.6398 C.ar    1  UNL1        0.0002
      7 C         140.1869  144.6553  161.6426 C.ar    1  UNL1        0.0363
      8 C         139.4306  144.5477  162.9335 C.ar    1  UNL1        0.1346
      9 C         140.1712  144.3422  164.2217 C.ar    1  UNL1        0.0153
     10 C         141.6679  144.2443  164.2189 C.ar    1  UNL1       -0.0041
     11 C         139.1629  144.2733  165.3301 C.3     1  UNL1        0.0767
     12 C         137.7992  144.4363  164.7270 C.3     1  UNL1        0.2102
     13 O         137.9647  144.6059  163.2458 O.3     1  UNL1       -0.4754
     14 C         143.6917  141.3315  164.5073 C.2     1  UNL1       -0.0087
     15 C         142.6158  140.6538  163.7117 C.2     1  UNL1       -0.0010
     16 C         141.4653  139.9957  164.4141 C.ar    1  UNL1        0.0272
     17 C         140.6188  140.7847  165.3685 C.ar    1  UNL1        0.0022
     18 C         139.4683  140.1266  166.0709 C.ar    1  UNL1        0.0040
     19 C         139.1643  138.6795  165.8189 C.ar    1  UNL1        0.0737
     20 C         140.0109  137.8905  164.8646 C.ar    1  UNL1        0.0335
     21 C         141.1614  138.5486  164.1622 C.ar    1  UNL1        0.1400
     22 F         142.0079  137.7595  163.2078 F       1  UNL1       -0.2042
     23 C         138.0139  138.0215  166.5213 C.3     1  UNL1        0.4186
     24 F         136.8634  137.3636  167.2238 F       1  UNL1       -0.1659
     25 F         138.2735  136.7552  165.7602 F       1  UNL1       -0.1659
     26 F         137.7543  139.2878  167.2824 F       1  UNL1       -0.1659
@<TRIPOS>BOND
     1     2     3    1
     2     3     1    1
     3     1    14    1
     4    14    15    2
     5    15    16    1
     6    16    17   ar
     7    17    18   ar
     8    18    19   ar
     9    19    23    1
    10    23    24    1
    11    23    25    1
    12    23    26    1
    13    19    20   ar
    14    20    21   ar
    15    21    22    1
    16     3     4    1
    17     4     5    1
    18     5     6   ar
    19     6     7   ar
    20     7     8   ar
    21     8     9   ar
    22     9    10   ar
    23     9    11    1
    24    11    12    1
    25    12    13    1
    26    21    16   ar
    27    10     5   ar
    28    13     8    1
@<TRIPOS>MOLECULE
*****
 26 28 0 0 0
SMALL
GASTEIGER

@<TRIPOS>ATOM
      1 C         138.4370  144.1459  164.2197 C.3     1  UNL1        0.0992
      2 C         138.2678  143.2401  161.7906 C.3     1  UNL1        0.0902
      3 N         138.9900  144.0466  162.8289 N.3     1  UNL1       -0.2639
      4 C         140.2651  144.7536  162.4765 C.3     1  UNL1        0.0994
      5 C         141.5756  144.2396  162.9946 C.ar    1  UNL1       -0.0062
      6 C         142.4826  145.1468  163.7718 C.ar    1  UNL1        0.0002
      7 C         143.7931  144.6329  164.2899 C.ar    1  UNL1        0.0363
      8 C         144.1965  143.2116  164.0308 C.ar    1  UNL1        0.1346
      9 C         143.2895  142.3043  163.2535 C.ar    1  UNL1        0.0153
     10 C         141.9790  142.8183  162.7354 C.ar    1  UNL1       -0.0041
     11 C         143.9503  140.9613  163.1555 C.3     1  UNL1        0.0767
     12 C         145.2658  141.0385  163.8722 C.3     1  UNL1        0.2102
     13 O         145.4179  142.4293  164.4131 O.3     1  UNL1       -0.4754
     14 C         139.2251  143.6143  165.3800 C.2     1  UNL1       -0.0087
     15 C         139.6654  142.1804  165.3935 C.2     1  UNL1       -0.0010
     16 C         140.4535  141.6488  166.5537 C.ar    1  UNL1        0.0272
     17 C         141.7835  142.2518  166.8964 C.ar    1  UNL1        0.0022
     18 C         142.5716  141.7202  168.0566 C.ar    1  UNL1        0.0040
     19 C         142.0297  140.5854  168.8743 C.ar    1  UNL1        0.0737
     20 C         140.6998  139.9822  168.5317 C.ar    1  UNL1        0.0335
     21 C         139.9116  140.5139  167.3715 C.ar    1  UNL1        0.1400
     22 F         138.5817  139.9108  167.0289 F       1  UNL1       -0.2042
     23 C         142.8179  140.0537  170.0346 C.3     1  UNL1        0.4186
     24 F         143.6060  139.5222  171.1948 F       1  UNL1       -0.1659
     25 F         141.9087  138.8628  170.1064 F       1  UNL1       -0.1659
     26 F         143.7270  141.2447  169.9626 F       1  UNL1       -0.1659
@<TRIPOS>BOND
     1     2     3    1
     2     3     1    1
     3     1    14    1
     4    14    15    2
     5    15    16    1
     6    16    17   ar
     7    17    18   ar
     8    18    19   ar
     9    19    23    1
    10    23    24    1
    11    23    25    1
    12    23    26    1
    13    19    20   ar
    14    20    21   ar
    15    21    22    1
    16     3     4    1
    17     4     5    1
    18     5     6   ar
    19     6     7   ar
    20     7     8   ar
    21     8     9   ar
    22     9    10   ar
    23     9    11    1
    24    11    12    1
    25    12    13    1
    26    21    16   ar
    27    10     5   ar
    28    13     8    1
@<TRIPOS>MOLECULE
*****
 26 28 0 0 0
SMALL
GASTEIGER

@<TRIPOS>ATOM
      1 C         138.8687  144.9327  164.8229 C.3     1  UNL1        0.0992
      2 C         139.4004  145.3233  162.3100 C.3     1  UNL1        0.0902
      3 N         138.6422  144.5941  163.3793 N.3     1  UNL1       -0.2639
      4 C         137.6576  143.5262  163.0050 C.3     1  UNL1        0.0994
      5 C         138.0392  142.0801  163.1213 C.ar    1  UNL1       -0.0062
      6 C         138.5369  141.3366  161.9175 C.ar    1  UNL1        0.0002
      7 C         138.9185  139.8906  162.0338 C.ar    1  UNL1        0.0363
      8 C         138.8022  139.1881  163.3540 C.ar    1  UNL1        0.1346
      9 C         138.3045  139.9317  164.5579 C.ar    1  UNL1        0.0153
     10 C         137.9229  141.3776  164.4416 C.ar    1  UNL1       -0.0041
     11 C         138.2963  138.9818  165.7188 C.3     1  UNL1        0.0767
     12 C         138.7890  137.6512  165.2323 C.3     1  UNL1        0.2102
     13 O         139.1017  137.7787  163.7708 O.3     1  UNL1       -0.4754
     14 C         139.3120  143.8684  165.7824 C.2     1  UNL1       -0.0087
     15 C         140.6540  143.2196  165.6151 C.2     1  UNL1       -0.0010
     16 C         141.0974  142.1552  166.5746 C.ar    1  UNL1        0.0272
     17 C         141.6902  140.8784  166.0568 C.ar    1  UNL1        0.0022
     18 C         142.1336  139.8140  167.0163 C.ar    1  UNL1        0.0040
     19 C         141.9840  140.0265  168.4936 C.ar    1  UNL1        0.0737
     20 C         141.3911  141.3033  169.0115 C.ar    1  UNL1        0.0335
     21 C         140.9478  142.3677  168.0520 C.ar    1  UNL1        0.1400
     22 F         140.3549  143.6445  168.5698 F       1  UNL1       -0.2042
     23 C         142.4273  138.9621  169.4531 C.3     1  UNL1        0.4186
     24 F         142.8707  137.8977  170.4124 F       1  UNL1       -0.1659
     25 F         141.6312  139.6143  170.5444 F       1  UNL1       -0.1659
     26 F         143.2234  138.3100  168.3617 F       1  UNL1       -0.1659
@<TRIPOS>BOND
     1     2     3    1
     2     3     1    1
     3     1    14    1
     4    14    15    2
     5    15    16    1
     6    16    17   ar
     7    17    18   ar
     8    18    19   ar
     9    19    23    1
    10    23    24    1
    11    23    25    1
    12    23    26    1
    13    19    20   ar
    14    20    21   ar
    15    21    22    1
    16     3     4    1
    17     4     5    1
    18     5     6   ar
    19     6     7   ar
    20     7     8   ar
    21     8     9   ar
    22     9    10   ar
    23     9    11    1
    24    11    12    1
    25    12    13    1
    26    21    16   ar
    27    10     5   ar
    28    13     8    1
@<TRIPOS>MOLECULE
*****
 26 28 0 0 0
SMALL
GASTEIGER

@<TRIPOS>ATOM
      1 C         138.8933  137.9762  164.4403 C.3     1  UNL1        0.0992
      2 C         139.6588  137.8538  161.9606 C.3     1  UNL1        0.0902
      3 N         138.8541  138.5141  163.0406 N.3     1  UNL1       -0.2639
      4 C         138.0103  139.7123  162.7209 C.3     1  UNL1        0.0994
      5 C         138.4523  141.0784  163.1552 C.ar    1  UNL1       -0.0062
      6 C         137.4952  141.9838  163.8721 C.ar    1  UNL1        0.0002
      7 C         137.9372  143.3498  164.3063 C.ar    1  UNL1        0.0363
      8 C         139.3364  143.8104  164.0237 C.ar    1  UNL1        0.1346
      9 C         140.2937  142.9050  163.3068 C.ar    1  UNL1        0.0153
     10 C         139.8517  141.5390  162.8726 C.ar    1  UNL1       -0.0041
     11 C         141.6006  143.6282  163.1686 C.3     1  UNL1        0.0767
     12 C         141.4510  144.9806  163.8000 C.3     1  UNL1        0.2102
     13 O         140.0517  145.0932  164.3285 O.3     1  UNL1       -0.4754
     14 C         139.4026  138.8350  165.5598 C.2     1  UNL1       -0.0087
     15 C         140.7693  139.4471  165.4735 C.2     1  UNL1       -0.0010
     16 C         141.2786  140.3058  166.5930 C.ar    1  UNL1        0.0272
     17 C         140.6593  141.6474  166.8505 C.ar    1  UNL1        0.0022
     18 C         141.1686  142.5061  167.9700 C.ar    1  UNL1        0.0040
     19 C         142.2972  142.0232  168.8320 C.ar    1  UNL1        0.0737
     20 C         142.9165  140.6815  168.5745 C.ar    1  UNL1        0.0335
     21 C         142.4072  139.8228  167.4550 C.ar    1  UNL1        0.1400
     22 F         143.0266  138.4811  167.1974 F       1  UNL1       -0.2042
     23 C         142.8065  142.8819  169.9515 C.3     1  UNL1        0.4186
     24 F         143.3156  143.7407  171.0709 F       1  UNL1       -0.1659
     25 F         144.0786  142.0877  169.9820 F       1  UNL1       -0.1659
     26 F         141.5343  143.6761  169.9209 F       1  UNL1       -0.1659
@<TRIPOS>BOND
     1     2     3    1
     2     3     1    1
     3     1    14    1
     4    14    15    2
     5    15    16    1
     6    16    17   ar
     7    17    18   ar
     8    18    19   ar
     9    19    23    1
    10    23    24    1
    11    23    25    1
    12    23    26    1
    13    19    20   ar
    14    20    21   ar
    15    21    22    1
    16     3     4    1
    17     4     5    1
    18     5     6   ar
    19     6     7   ar
    20     7     8   ar
    21     8     9   ar
    22     9    10   ar
    23     9    11    1
    24    11    12    1
    25    12    13    1
    26    21    16   ar
    27    10     5   ar
    28    13     8    1
@<TRIPOS>MOLECULE
*****
 26 28 0 0 0
SMALL
GASTEIGER

@<TRIPOS>ATOM
      1 C         139.0664  137.5533  164.1979 C.3     1  UNL1        0.0992
      2 C         138.2282  138.2810  161.8489 C.3     1  UNL1        0.0902
      3 N         139.3464  137.8634  162.7572 N.3     1  UNL1       -0.2639
      4 C         140.7447  137.7558  162.2250 C.3     1  UNL1        0.0994
      5 C         141.6980  138.9030  162.3840 C.ar    1  UNL1       -0.0062
      6 C         141.4256  140.2060  161.6927 C.ar    1  UNL1        0.0002
      7 C         142.3790  141.3531  161.8518 C.ar    1  UNL1        0.0363
      8 C         143.6047  141.1972  162.7022 C.ar    1  UNL1        0.1346
      9 C         143.8772  139.8942  163.3935 C.ar    1  UNL1        0.0153
     10 C         142.9239  138.7471  163.2345 C.ar    1  UNL1       -0.0041
     11 C         145.1579  140.0357  164.1615 C.3     1  UNL1        0.0767
     12 C         145.6769  141.4263  163.9447 C.3     1  UNL1        0.2102
     13 O         144.7171  142.1441  163.0428 O.3     1  UNL1       -0.4754
     14 C         139.7934  138.2954  165.2798 C.2     1  UNL1       -0.0087
     15 C         139.7280  139.7929  165.3365 C.2     1  UNL1       -0.0010
     16 C         140.4551  140.5350  166.4185 C.ar    1  UNL1        0.0272
     17 C         141.6782  141.3372  166.0862 C.ar    1  UNL1        0.0022
     18 C         142.4052  142.0793  167.1682 C.ar    1  UNL1        0.0040
     19 C         141.9092  142.0192  168.5825 C.ar    1  UNL1        0.0737
     20 C         140.6860  141.2171  168.9148 C.ar    1  UNL1        0.0335
     21 C         139.9589  140.4750  167.8329 C.ar    1  UNL1        0.1400
     22 F         138.7358  139.6729  168.1652 F       1  UNL1       -0.2042
     23 C         142.6362  142.7614  169.6645 C.3     1  UNL1        0.4186
     24 F         143.3634  143.5034  170.7464 F       1  UNL1       -0.1659
     25 F         141.4596  143.6775  169.8268 F       1  UNL1       -0.1659
     26 F         143.8128  141.8452  169.5021 F       1  UNL1       -0.1659
@<TRIPOS>BOND
     1     2     3    1
     2     3     1    1
     3     1    14    1
     4    14    15    2
     5    15    16    1
     6    16    17   ar
     7    17    18   ar
     8    18    19   ar
     9    19    23    1
    10    23    24    1
    11    23    25    1
    12    23    26    1
    13    19    20   ar
    14    20    21   ar
    15    21    22    1
    16     3     4    1
    17     4     5    1
    18     5     6   ar
    19     6     7   ar
    20     7     8   ar
    21     8     9   ar
    22     9    10   ar
    23     9    11    1
    24    11    12    1
    25    12    13    1
    26    21    16   ar
    27    10     5   ar
    28    13     8    1
@<TRIPOS>MOLECULE
*****
 26 28 0 0 0
SMALL
GASTEIGER

@<TRIPOS>ATOM
      1 C         138.7213  138.1788  163.4927 C.3     1  UNL1        0.0992
      2 C         139.4235  138.0995  160.9926 C.3     1  UNL1        0.0902
      3 N         138.5760  138.6791  162.0861 N.3     1  UNL1       -0.2639
      4 C         137.5831  139.7590  161.7730 C.3     1  UNL1        0.0994
      5 C         137.9303  141.1952  162.0322 C.ar    1  UNL1       -0.0062
      6 C         137.3067  141.9209  163.1873 C.ar    1  UNL1        0.0002
      7 C         137.6538  143.3569  163.4464 C.ar    1  UNL1        0.0363
      8 C         138.6247  144.0673  162.5504 C.ar    1  UNL1        0.1346
      9 C         139.2483  143.3416  161.3952 C.ar    1  UNL1        0.0153
     10 C         138.9012  141.9055  161.1361 C.ar    1  UNL1       -0.0041
     11 C         140.1647  144.2959  160.6885 C.3     1  UNL1        0.0767
     12 C         140.1075  145.6114  161.4069 C.3     1  UNL1        0.2102
     13 O         139.1556  145.4701  162.5577 O.3     1  UNL1       -0.4754
     14 C         139.4898  138.9829  164.4991 C.2     1  UNL1       -0.0087
     15 C         138.7646  139.6919  165.6043 C.2     1  UNL1       -0.0010
     16 C         139.5330  140.4960  166.6107 C.ar    1  UNL1        0.0272
     17 C         139.5272  140.0927  168.0554 C.ar    1  UNL1        0.0022
     18 C         140.2957  140.8968  169.0618 C.ar    1  UNL1        0.0040
     19 C         141.0700  142.1044  168.6235 C.ar    1  UNL1        0.0737
     20 C         141.0759  142.5078  167.1788 C.ar    1  UNL1        0.0335
     21 C         140.3074  141.7037  166.1724 C.ar    1  UNL1        0.1400
     22 F         140.3133  142.1071  164.7277 F       1  UNL1       -0.2042
     23 C         141.8385  142.9085  169.6299 C.3     1  UNL1        0.4186
     24 F         142.6070  143.7125  170.6362 F       1  UNL1       -0.1659
     25 F         140.7802  143.9707  169.5892 F       1  UNL1       -0.1659
     26 F         142.8968  141.8462  169.6704 F       1  UNL1       -0.1659
@<TRIPOS>BOND
     1     2     3    1
     2     3     1    1
     3     1    14    1
     4    14    15    2
     5    15    16    1
     6    16    17   ar
     7    17    18   ar
     8    18    19   ar
     9    19    23    1
    10    23    24    1
    11    23    25    1
    12    23    26    1
    13    19    20   ar
    14    20    21   ar
    15    21    22    1
    16     3     4    1
    17     4     5    1
    18     5     6   ar
    19     6     7   ar
    20     7     8   ar
    21     8     9   ar
    22     9    10   ar
    23     9    11    1
    24    11    12    1
    25    12    13    1
    26    21    16   ar
    27    10     5   ar
    28    13     8    1
@<TRIPOS>MOLECULE
*****
 26 28 0 0 0
SMALL
GASTEIGER

@<TRIPOS>ATOM
      1 C         144.9176  140.7319  163.7588 C.3     1  UNL1        0.0992
      2 C         144.2627  140.0781  161.3311 C.3     1  UNL1        0.0902
      3 N         144.4849  141.1286  162.3784 N.3     1  UNL1       -0.2639
      4 C         144.2744  142.5760  162.0454 C.3     1  UNL1        0.0994
      5 C         143.0393  143.2828  162.5198 C.ar    1  UNL1       -0.0062
      6 C         143.1529  144.6092  163.2109 C.ar    1  UNL1        0.0002
      7 C         141.9178  145.3160  163.6853 C.ar    1  UNL1        0.0363
      8 C         140.5691  144.6964  163.4685 C.ar    1  UNL1        0.1346
      9 C         140.4554  143.3699  162.7774 C.ar    1  UNL1        0.0153
     10 C         141.6905  142.6631  162.3030 C.ar    1  UNL1       -0.0041
     11 C         139.0016  143.0079  162.7053 C.3     1  UNL1        0.0767
     12 C         138.2167  144.1106  163.3518 C.3     1  UNL1        0.2102
     13 O         139.1855  145.1541  163.8235 O.3     1  UNL1       -0.4754
     14 C         144.1853  141.2620  164.9557 C.2     1  UNL1       -0.0087
     15 C         142.8216  140.7368  165.2940 C.2     1  UNL1       -0.0010
     16 C         142.0893  141.2669  166.4910 C.ar    1  UNL1        0.0272
     17 C         141.1924  142.4612  166.3532 C.ar    1  UNL1        0.0022
     18 C         140.4602  142.9914  167.5502 C.ar    1  UNL1        0.0040
     19 C         140.6248  142.3272  168.8850 C.ar    1  UNL1        0.0737
     20 C         141.5218  141.1329  169.0228 C.ar    1  UNL1        0.0335
     21 C         142.2540  140.6027  167.8259 C.ar    1  UNL1        0.1400
     22 F         143.1510  139.4083  167.9637 F       1  UNL1       -0.2042
     23 C         139.8926  142.8574  170.0820 C.3     1  UNL1        0.4186
     24 F         139.1603  143.3874  171.2789 F       1  UNL1       -0.1659
     25 F         140.5864  144.1776  169.9217 F       1  UNL1       -0.1659
     26 F         139.1988  141.5371  170.2422 F       1  UNL1       -0.1659
@<TRIPOS>BOND
     1     2     3    1
     2     3     1    1
     3     1    14    1
     4    14    15    2
     5    15    16    1
     6    16    17   ar
     7    17    18   ar
     8    18    19   ar
     9    19    23    1
    10    23    24    1
    11    23    25    1
    12    23    26    1
    13    19    20   ar
    14    20    21   ar
    15    21    22    1
    16     3     4    1
    17     4     5    1
    18     5     6   ar
    19     6     7   ar
    20     7     8   ar
    21     8     9   ar
    22     9    10   ar
    23     9    11    1
    24    11    12    1
    25    12    13    1
    26    21    16   ar
    27    10     5   ar
    28    13     8    1
@<TRIPOS>MOLECULE
*****
 26 28 0 0 0
SMALL
GASTEIGER

@<TRIPOS>ATOM
      1 C         144.5088  139.3019  163.9616 C.3     1  UNL1        0.0992
      2 C         143.2915  138.1877  161.9550 C.3     1  UNL1        0.0902
      3 N         144.0186  139.3594  162.5451 N.3     1  UNL1       -0.2639
      4 C         144.2555  140.5887  161.7188 C.3     1  UNL1        0.0994
      5 C         143.6457  141.8967  162.1283 C.ar    1  UNL1       -0.0062
      6 C         144.5215  143.0911  162.3647 C.ar    1  UNL1        0.0002
      7 C         143.9117  144.3990  162.7741 C.ar    1  UNL1        0.0363
      8 C         142.4261  144.5123  162.9471 C.ar    1  UNL1        0.1346
      9 C         141.5501  143.3178  162.7106 C.ar    1  UNL1        0.0153
     10 C         142.1599  142.0100  162.3012 C.ar    1  UNL1       -0.0041
     11 C         140.1289  143.7290  162.9573 C.3     1  UNL1        0.0767
     12 C         140.1264  145.1777  163.3463 C.3     1  UNL1        0.2102
     13 O         141.5461  145.6619  163.3399 O.3     1  UNL1       -0.4754
     14 C         143.6254  139.7683  165.0805 C.2     1  UNL1       -0.0087
     15 C         143.6294  141.2120  165.4874 C.2     1  UNL1       -0.0010
     16 C         142.7460  141.6784  166.6063 C.ar    1  UNL1        0.0272
     17 C         143.3529  142.1512  167.8939 C.ar    1  UNL1        0.0022
     18 C         142.4694  142.6176  169.0129 C.ar    1  UNL1        0.0040
     19 C         140.9790  142.6112  168.8442 C.ar    1  UNL1        0.0737
     20 C         140.3720  142.1384  167.5566 C.ar    1  UNL1        0.0335
     21 C         141.2554  141.6720  166.4376 C.ar    1  UNL1        0.1400
     22 F         140.6484  141.1992  165.1500 F       1  UNL1       -0.2042
     23 C         140.0955  143.0775  169.9631 C.3     1  UNL1        0.4186
     24 F         139.2122  143.5440  171.0820 F       1  UNL1       -0.1659
     25 F         139.3559  141.7732  169.9228 F       1  UNL1       -0.1659
     26 F         140.8353  144.3819  170.0034 F       1  UNL1       -0.1659
@<TRIPOS>BOND
     1     2     3    1
     2     3     1    1
     3     1    14    1
     4    14    15    2
     5    15    16    1
     6    16    17   ar
     7    17    18   ar
     8    18    19   ar
     9    19    23    1
    10    23    24    1
    11    23    25    1
    12    23    26    1
    13    19    20   ar
    14    20    21   ar
    15    21    22    1
    16     3     4    1
    17     4     5    1
    18     5     6   ar
    19     6     7   ar
    20     7     8   ar
    21     8     9   ar
    22     9    10   ar
    23     9    11    1
    24    11    12    1
    25    12    13    1
    26    21    16   ar
    27    10     5   ar
    28    13     8    1
