@<TRIPOS>MOLECULE
*****
 32 35 0 0 0
SMALL
GASTEIGER

@<TRIPOS>ATOM
      1 N         136.4156  140.6080  156.8075 N.am    1  UNL1       -0.2885
      2 C         137.2947  141.7528  157.2157 C.2     1  UNL1        0.3088
      3 O         137.3797  142.9775  156.3540 O.2     1  UNL1       -0.2522
      4 N         138.0889  141.6727  158.4857 N.am    1  UNL1       -0.2282
      5 C         138.1054  140.5188  159.4441 C.3     1  UNL1        0.1053
      6 C         139.0327  140.8654  160.5710 C.3     1  UNL1        0.0430
      7 C         138.3961  139.5132  160.6986 C.3     1  UNL1        0.0232
      8 C         138.7115  138.6443  161.8800 C.3     1  UNL1        0.0725
      9 N         139.6634  139.1276  162.9336 N.3     1  UNL1       -0.2727
     10 C         140.3000  140.4798  162.8060 C.3     1  UNL1        0.0725
     11 C         139.9847  141.3487  161.6247 C.3     1  UNL1        0.0232
     12 C         139.5894  142.2335  160.3091 C.ar    1  UNL1        0.0109
     13 C         140.5520  143.0894  161.0777 C.ar    1  UNL1        0.0001
     14 C         140.9314  144.4442  160.5576 C.ar    1  UNL1        0.0204
     15 C         140.3480  144.9431  159.2688 C.ar    1  UNL1        0.1003
     16 N         139.3854  144.0872  158.5003 N.ar    1  UNL1       -0.2291
     17 C         139.0061  142.7324  159.0204 C.ar    1  UNL1        0.1345
     18 H         136.3598  139.8041  157.3731 H       1  UNL1        0.1510
     19 C         134.1347  140.8793  155.5936 C.3     1  UNL1        0.0230
     20 C         135.6214  140.6881  155.5376 C.3     1  UNL1        0.0910
     21 C         139.9787  138.2587  164.1150 C.3     1  UNL1        0.0722
     22 C         139.8424  138.8047  165.5054 C.3     1  UNL1        0.0194
     23 C         141.0336  139.3964  166.1989 C.3     1  UNL1        0.0231
     24 C         140.8972  139.9425  167.5894 C.3     1  UNL1        0.0968
     25 N         139.5697  139.8969  168.2862 N.am    1  UNL1       -0.2460
     26 C         139.4334  140.4430  169.6766 C.2     1  UNL1        0.4049
     27 O         138.1058  140.3974  170.3735 O.2     1  UNL1       -0.2262
     28 C         138.3785  139.3052  167.5926 C.3     1  UNL1        0.0968
     29 C         138.5149  138.7591  166.2023 C.3     1  UNL1        0.0231
     30 O         140.6246  141.0347  170.3701 O.3     1  UNL1       -0.4345
     31 C         140.7507  142.5233  170.5056 C.3     1  UNL1        0.2102
     32 C         140.4057  143.4136  169.3487 C.3     1  UNL1        0.0513
@<TRIPOS>BOND
     1    19    20    1
     2    20     1    1
     3     1     2   am
     4     2     3    2
     5     2     4   am
     6     4     5    1
     7     5     6    1
     8     6     7    1
     9     7     8    1
    10     8     9    1
    11     9    21    1
    12    21    22    1
    13    22    23    1
    14    23    24    1
    15    24    25    1
    16    25    26   am
    17    26    27    2
    18    26    30    1
    19    30    31    1
    20    31    32    1
    21    25    28    1
    22    28    29    1
    23     9    10    1
    24    10    11    1
    25     6    12    1
    26    12    13   ar
    27    13    14   ar
    28    14    15   ar
    29    15    16   ar
    30    16    17   ar
    31    17     4    1
    32    11     6    1
    33    17    12   ar
    34    29    22    1
    35     1    18    1
@<TRIPOS>MOLECULE
*****
 32 35 0 0 0
SMALL
GASTEIGER

@<TRIPOS>ATOM
      1 N         137.5492  139.3236  169.8449 N.am    1  UNL1       -0.2885
      2 C         138.8025  140.1265  169.6585 C.2     1  UNL1        0.3088
      3 O         139.3482  140.9395  170.7947 O.2     1  UNL1       -0.2522
      4 N         139.5099  140.1163  168.3359 N.am    1  UNL1       -0.2282
      5 C         139.0854  139.3554  167.1147 C.3     1  UNL1        0.1053
      6 C         140.0792  139.6340  166.0262 C.3     1  UNL1        0.0430
      7 C         138.9722  138.7072  165.6192 C.3     1  UNL1        0.0232
      8 C         138.9340  138.1506  164.2268 C.3     1  UNL1        0.0725
      9 N         140.0028  138.5207  163.2416 N.3     1  UNL1       -0.2727
     10 C         141.1097  139.4475  163.6486 C.3     1  UNL1        0.0725
     11 C         141.1479  140.0041  165.0409 C.3     1  UNL1        0.0232
     12 C         141.1179  140.5670  166.5746 C.ar    1  UNL1        0.0109
     13 C         142.3386  141.1837  165.9586 C.ar    1  UNL1        0.0001
     14 C         143.2076  142.0984  166.7699 C.ar    1  UNL1        0.0204
     15 C         142.8557  142.3964  168.1973 C.ar    1  UNL1        0.1003
     16 N         141.6350  141.7798  168.8133 N.ar    1  UNL1       -0.2291
     17 C         140.7661  140.8651  168.0020 C.ar    1  UNL1        0.1345
     18 H         137.1910  138.7900  169.0992 H       1  UNL1        0.1510
     19 C         135.8202  138.2809  171.4798 C.3     1  UNL1        0.0230
     20 C         136.8418  139.3338  171.1676 C.3     1  UNL1        0.0910
     21 C         139.9646  137.9640  161.8492 C.3     1  UNL1        0.0722
     22 C         140.8095  138.5779  160.7725 C.3     1  UNL1        0.0194
     23 C         140.2617  139.6947  159.9343 C.3     1  UNL1        0.0231
     24 C         141.1067  140.3085  158.8577 C.3     1  UNL1        0.0968
     25 N         142.4996  139.8056  158.6193 N.am    1  UNL1       -0.2460
     26 C         143.3446  140.4194  157.5427 C.2     1  UNL1        0.4049
     27 O         144.7376  139.9165  157.3042 O.2     1  UNL1       -0.2262
     28 C         143.0475  138.6888  159.4575 C.3     1  UNL1        0.0968
     29 C         142.2025  138.0749  160.5341 C.3     1  UNL1        0.0231
     30 O         142.7967  141.5362  156.7045 O.3     1  UNL1       -0.4345
     31 C         143.1045  142.9608  157.0593 C.3     1  UNL1        0.2102
     32 C         143.3494  143.3414  158.4894 C.3     1  UNL1        0.0513
@<TRIPOS>BOND
     1    19    20    1
     2    20     1    1
     3     1     2   am
     4     2     3    2
     5     2     4   am
     6     4     5    1
     7     5     6    1
     8     6     7    1
     9     7     8    1
    10     8     9    1
    11     9    21    1
    12    21    22    1
    13    22    23    1
    14    23    24    1
    15    24    25    1
    16    25    26   am
    17    26    27    2
    18    26    30    1
    19    30    31    1
    20    31    32    1
    21    25    28    1
    22    28    29    1
    23     9    10    1
    24    10    11    1
    25     6    12    1
    26    12    13   ar
    27    13    14   ar
    28    14    15   ar
    29    15    16   ar
    30    16    17   ar
    31    17     4    1
    32    11     6    1
    33    17    12   ar
    34    29    22    1
    35     1    18    1
@<TRIPOS>MOLECULE
*****
 32 35 0 0 0
SMALL
GASTEIGER

@<TRIPOS>ATOM
      1 N         137.5015  139.3686  169.8960 N.am    1  UNL1       -0.2885
      2 C         138.7523  140.1729  169.6996 C.2     1  UNL1        0.3088
      3 O         139.2851  141.0165  170.8195 O.2     1  UNL1       -0.2522
      4 N         139.4703  140.1334  168.3832 N.am    1  UNL1       -0.2282
      5 C         139.0593  139.3404  167.1780 C.3     1  UNL1        0.1053
      6 C         140.0604  139.5969  166.0908 C.3     1  UNL1        0.0430
      7 C         138.9612  138.6548  165.6982 C.3     1  UNL1        0.0232
      8 C         138.9368  138.0637  164.3198 C.3     1  UNL1        0.0725
      9 N         140.0116  138.4146  163.3341 N.3     1  UNL1       -0.2727
     10 C         141.1108  139.3567  163.7267 C.3     1  UNL1        0.0725
     11 C         141.1352  139.9479  165.1051 C.3     1  UNL1        0.0232
     12 C         141.0902  140.5484  166.6241 C.ar    1  UNL1        0.0109
     13 C         142.3128  141.1558  166.0025 C.ar    1  UNL1        0.0001
     14 C         143.1708  142.0946  166.7977 C.ar    1  UNL1        0.0204
     15 C         142.8061  142.4262  168.2145 C.ar    1  UNL1        0.1003
     16 N         141.5835  141.8189  168.8360 N.ar    1  UNL1       -0.2291
     17 C         140.7255  140.8800  168.0408 C.ar    1  UNL1        0.1345
     18 H         137.1518  138.8148  169.1609 H       1  UNL1        0.1510
     19 C         135.8158  138.3197  171.5717 C.3     1  UNL1        0.0230
     20 C         136.7835  139.4080  171.2124 C.3     1  UNL1        0.0910
     21 C         139.9872  137.8234  161.9557 C.3     1  UNL1        0.0722
     22 C         139.6380  138.6829  160.7771 C.3     1  UNL1        0.0194
     23 C         138.2877  139.3309  160.6952 C.3     1  UNL1        0.0231
     24 C         137.9385  140.1905  159.5164 C.3     1  UNL1        0.0968
     25 N         138.9397  140.4020  158.4197 N.am    1  UNL1       -0.2460
     26 C         138.5905  141.2615  157.2410 C.2     1  UNL1        0.4049
     27 O         139.5917  141.4731  156.1442 O.2     1  UNL1       -0.2262
     28 C         140.2900  139.7541  158.5016 C.3     1  UNL1        0.0968
     29 C         140.6392  138.8945  159.6802 C.3     1  UNL1        0.0231
     30 O         137.2401  141.9095  157.1591 O.3     1  UNL1       -0.4345
     31 C         136.3289  141.6013  156.0081 C.3     1  UNL1        0.2102
     32 C         136.0974  142.6279  154.9392 C.3     1  UNL1        0.0513
@<TRIPOS>BOND
     1    19    20    1
     2    20     1    1
     3     1     2   am
     4     2     3    2
     5     2     4   am
     6     4     5    1
     7     5     6    1
     8     6     7    1
     9     7     8    1
    10     8     9    1
    11     9    21    1
    12    21    22    1
    13    22    23    1
    14    23    24    1
    15    24    25    1
    16    25    26   am
    17    26    27    2
    18    26    30    1
    19    30    31    1
    20    31    32    1
    21    25    28    1
    22    28    29    1
    23     9    10    1
    24    10    11    1
    25     6    12    1
    26    12    13   ar
    27    13    14   ar
    28    14    15   ar
    29    15    16   ar
    30    16    17   ar
    31    17     4    1
    32    11     6    1
    33    17    12   ar
    34    29    22    1
    35     1    18    1
@<TRIPOS>MOLECULE
*****
 32 35 0 0 0
SMALL
GASTEIGER

@<TRIPOS>ATOM
      1 N         136.7881  141.3681  156.8564 N.am    1  UNL1       -0.2885
      2 C         138.2601  141.0949  156.7646 C.2     1  UNL1        0.3088
      3 O         139.0262  141.5143  155.5452 O.2     1  UNL1       -0.2522
      4 N         138.9660  140.4022  157.8924 N.am    1  UNL1       -0.2282
      5 C         138.3355  139.9268  159.1678 C.3     1  UNL1        0.1053
      6 C         139.4062  139.2940  160.0065 C.3     1  UNL1        0.0430
      7 C         138.0473  139.2825  160.6414 C.3     1  UNL1        0.0232
      8 C         137.8589  138.6725  161.9987 C.3     1  UNL1        0.0725
      9 N         139.0294  138.0740  162.7211 N.3     1  UNL1       -0.2727
     10 C         140.3883  138.0855  162.0861 C.3     1  UNL1        0.0725
     11 C         140.5767  138.6955  160.7288 C.3     1  UNL1        0.0232
     12 C         140.6985  139.3784  159.2494 C.ar    1  UNL1        0.0109
     13 C         142.0877  138.9201  159.5809 C.ar    1  UNL1        0.0001
     14 C         143.2049  139.1466  158.6060 C.ar    1  UNL1        0.0204
     15 C         142.9328  139.8315  157.2995 C.ar    1  UNL1        0.1003
     16 N         141.5436  140.2898  156.9679 N.ar    1  UNL1       -0.2291
     17 C         140.4264  140.0633  157.9429 C.ar    1  UNL1        0.1345
     18 H         136.2853  141.0929  157.6568 H       1  UNL1        0.1510
     19 C         134.9764  141.3623  154.9943 C.3     1  UNL1        0.0230
     20 C         136.0822  142.0608  155.7286 C.3     1  UNL1        0.0910
     21 C         138.8409  137.4640  164.0785 C.3     1  UNL1        0.0722
     22 C         139.1146  138.2755  165.3100 C.3     1  UNL1        0.0194
     23 C         140.4485  138.9372  165.4911 C.3     1  UNL1        0.0231
     24 C         140.7221  139.7487  166.7227 C.3     1  UNL1        0.0968
     25 N         139.6619  139.8985  167.7730 N.am    1  UNL1       -0.2460
     26 C         139.9355  140.7099  169.0045 C.2     1  UNL1        0.4049
     27 O         138.8752  140.8598  170.0549 O.2     1  UNL1       -0.2262
     28 C         138.3279  139.2368  167.5919 C.3     1  UNL1        0.0968
     29 C         138.0543  138.4253  166.3604 C.3     1  UNL1        0.0231
     30 O         141.2695  141.3716  169.1856 O.3     1  UNL1       -0.4345
     31 C         142.3460  140.6858  169.9737 C.3     1  UNL1        0.2102
     32 C         142.4258  139.1881  169.9889 C.3     1  UNL1        0.0513
@<TRIPOS>BOND
     1    19    20    1
     2    20     1    1
     3     1     2   am
     4     2     3    2
     5     2     4   am
     6     4     5    1
     7     5     6    1
     8     6     7    1
     9     7     8    1
    10     8     9    1
    11     9    21    1
    12    21    22    1
    13    22    23    1
    14    23    24    1
    15    24    25    1
    16    25    26   am
    17    26    27    2
    18    26    30    1
    19    30    31    1
    20    31    32    1
    21    25    28    1
    22    28    29    1
    23     9    10    1
    24    10    11    1
    25     6    12    1
    26    12    13   ar
    27    13    14   ar
    28    14    15   ar
    29    15    16   ar
    30    16    17   ar
    31    17     4    1
    32    11     6    1
    33    17    12   ar
    34    29    22    1
    35     1    18    1
@<TRIPOS>MOLECULE
*****
 32 35 0 0 0
SMALL
GASTEIGER

@<TRIPOS>ATOM
      1 N         141.7340  142.4058  168.8001 N.am    1  UNL1       -0.2885
      2 C         140.6430  141.4135  168.5264 C.2     1  UNL1        0.3088
      3 O         139.4549  141.3346  169.4386 O.2     1  UNL1       -0.2522
      4 N         140.7401  140.5000  167.3407 N.am    1  UNL1       -0.2282
      5 C         141.8618  140.4635  166.3453 C.3     1  UNL1        0.1053
      6 C         141.5475  139.4036  165.3315 C.3     1  UNL1        0.0430
      7 C         142.8461  140.1141  165.0888 C.3     1  UNL1        0.0232
      8 C         143.6981  139.7386  163.9128 C.3     1  UNL1        0.0725
      9 N         143.2516  138.6526  162.9795 N.3     1  UNL1       -0.2727
     10 C         141.9531  137.9420  163.2221 C.3     1  UNL1        0.0725
     11 C         141.1010  138.3175  164.3981 C.3     1  UNL1        0.0232
     12 C         140.2316  138.7851  165.7002 C.ar    1  UNL1        0.0109
     13 C         139.4233  137.6924  165.0656 C.ar    1  UNL1        0.0001
     14 C         138.1159  137.2774  165.6727 C.ar    1  UNL1        0.0204
     15 C         137.6169  137.9551  166.9144 C.ar    1  UNL1        0.1003
     16 N         138.4252  139.0477  167.5490 N.ar    1  UNL1       -0.2291
     17 C         139.7326  139.4627  166.9419 C.ar    1  UNL1        0.1345
     18 H         142.5138  142.4576  168.2014 H       1  UNL1        0.1510
     19 C         140.5205  144.3172  170.0744 C.3     1  UNL1        0.0230
     20 C         141.6369  143.3193  169.9859 C.3     1  UNL1        0.0910
     21 C         144.1037  138.2771  161.8034 C.3     1  UNL1        0.0722
     22 C         143.6283  138.5656  160.4103 C.3     1  UNL1        0.0194
     23 C         142.8640  137.5242  159.6479 C.3     1  UNL1        0.0231
     24 C         142.3887  137.8127  158.2547 C.3     1  UNL1        0.0968
     25 N         142.6777  139.1426  157.6240 N.am    1  UNL1       -0.2460
     26 C         142.2024  139.4311  156.2309 C.2     1  UNL1        0.4049
     27 O         142.4914  140.7611  155.6001 O.2     1  UNL1       -0.2262
     28 C         143.4420  140.1840  158.3864 C.3     1  UNL1        0.0968
     29 C         143.9174  139.8955  159.7795 C.3     1  UNL1        0.0231
     30 O         141.4380  138.3897  155.4685 O.3     1  UNL1       -0.4345
     31 C         142.1480  137.5106  154.4820 C.3     1  UNL1        0.2102
     32 C         143.2509  136.6044  154.9429 C.3     1  UNL1        0.0513
@<TRIPOS>BOND
     1    19    20    1
     2    20     1    1
     3     1     2   am
     4     2     3    2
     5     2     4   am
     6     4     5    1
     7     5     6    1
     8     6     7    1
     9     7     8    1
    10     8     9    1
    11     9    21    1
    12    21    22    1
    13    22    23    1
    14    23    24    1
    15    24    25    1
    16    25    26   am
    17    26    27    2
    18    26    30    1
    19    30    31    1
    20    31    32    1
    21    25    28    1
    22    28    29    1
    23     9    10    1
    24    10    11    1
    25     6    12    1
    26    12    13   ar
    27    13    14   ar
    28    14    15   ar
    29    15    16   ar
    30    16    17   ar
    31    17     4    1
    32    11     6    1
    33    17    12   ar
    34    29    22    1
    35     1    18    1
@<TRIPOS>MOLECULE
*****
 32 35 0 0 0
SMALL
GASTEIGER

@<TRIPOS>ATOM
      1 N         144.0134  130.6989  158.0637 N.am    1  UNL1       -0.2885
      2 C         143.3276  130.6929  156.7297 C.2     1  UNL1        0.3088
      3 O         143.1037  129.3975  156.0074 O.2     1  UNL1       -0.2522
      4 N         142.8657  131.9822  156.1180 N.am    1  UNL1       -0.2282
      5 C         143.0191  133.3481  156.7190 C.3     1  UNL1        0.1053
      6 C         142.4175  134.3422  155.7704 C.3     1  UNL1        0.0430
      7 C         142.9881  134.9546  157.0151 C.3     1  UNL1        0.0232
      8 C         142.9231  136.4394  157.2180 C.3     1  UNL1        0.0725
      9 N         142.2875  137.3117  156.1763 N.3     1  UNL1       -0.2727
     10 C         141.7169  136.6992  154.9317 C.3     1  UNL1        0.0725
     11 C         141.7819  135.2145  154.7287 C.3     1  UNL1        0.0232
     12 C         141.8922  133.5907  154.5831 C.ar    1  UNL1        0.0109
     13 C         141.1975  134.0462  153.3341 C.ar    1  UNL1        0.0001
     14 C         140.7798  133.0432  152.3000 C.ar    1  UNL1        0.0204
     15 C         141.0568  131.5846  152.5149 C.ar    1  UNL1        0.1003
     16 N         141.7515  131.1293  153.7638 N.ar    1  UNL1       -0.2291
     17 C         142.1692  132.1323  154.7979 C.ar    1  UNL1        0.1345
     18 H         144.1603  131.5491  158.5378 H       1  UNL1        0.1510
     19 C         143.5212  128.5766  159.4791 C.3     1  UNL1        0.0230
     20 C         144.4753  129.4096  158.6754 C.3     1  UNL1        0.0910
     21 C         142.2226  138.7965  156.3794 C.3     1  UNL1        0.0722
     22 C         143.4777  139.6161  156.3278 C.3     1  UNL1        0.0194
     23 C         144.4566  139.4193  155.2083 C.3     1  UNL1        0.0231
     24 C         145.7118  140.2390  155.1568 C.3     1  UNL1        0.0968
     25 N         145.9881  141.2555  156.2246 N.am    1  UNL1       -0.2460
     26 C         147.2432  142.0752  156.1730 C.2     1  UNL1        0.4049
     27 O         147.5196  143.0918  157.2408 O.2     1  UNL1       -0.2262
     28 C         145.0092  141.4524  157.3440 C.3     1  UNL1        0.0968
     29 C         143.7541  140.6328  157.3956 C.3     1  UNL1        0.0231
     30 O         148.2221  141.8783  155.0536 O.3     1  UNL1       -0.4345
     31 C         149.6037  141.3723  155.3457 C.3     1  UNL1        0.2102
     32 C         150.7976  142.0823  154.7796 C.3     1  UNL1        0.0513
@<TRIPOS>BOND
     1    19    20    1
     2    20     1    1
     3     1     2   am
     4     2     3    2
     5     2     4   am
     6     4     5    1
     7     5     6    1
     8     6     7    1
     9     7     8    1
    10     8     9    1
    11     9    21    1
    12    21    22    1
    13    22    23    1
    14    23    24    1
    15    24    25    1
    16    25    26   am
    17    26    27    2
    18    26    30    1
    19    30    31    1
    20    31    32    1
    21    25    28    1
    22    28    29    1
    23     9    10    1
    24    10    11    1
    25     6    12    1
    26    12    13   ar
    27    13    14   ar
    28    14    15   ar
    29    15    16   ar
    30    16    17   ar
    31    17     4    1
    32    11     6    1
    33    17    12   ar
    34    29    22    1
    35     1    18    1
@<TRIPOS>MOLECULE
*****
 32 35 0 0 0
SMALL
GASTEIGER

@<TRIPOS>ATOM
      1 N         144.6796  140.7736  157.4246 N.am    1  UNL1       -0.2885
      2 C         143.8977  141.9907  157.8211 C.2     1  UNL1        0.3088
      3 O         144.0696  143.2728  157.0618 O.2     1  UNL1       -0.2522
      4 N         142.9439  141.9258  158.9770 N.am    1  UNL1       -0.2282
      5 C         142.6682  140.7201  159.8260 C.3     1  UNL1        0.1053
      6 C         141.6523  141.1042  160.8606 C.3     1  UNL1        0.0430
      7 C         142.1022  139.6760  160.9481 C.3     1  UNL1        0.0232
      8 C         141.5376  138.7753  162.0063 C.3     1  UNL1        0.0725
      9 N         140.5231  139.3028  162.9771 N.3     1  UNL1       -0.2727
     10 C         140.0731  140.7310  162.8896 C.3     1  UNL1        0.0725
     11 C         140.6377  141.6317  161.8313 C.3     1  UNL1        0.0232
     12 C         141.3001  142.5472  160.6511 C.ar    1  UNL1        0.0109
     13 C         140.3556  143.4644  161.3699 C.ar    1  UNL1        0.0001
     14 C         140.2094  144.8893  160.9247 C.ar    1  UNL1        0.0204
     15 C         141.0077  145.3970  159.7606 C.ar    1  UNL1        0.1003
     16 N         141.9521  144.4798  159.0418 N.ar    1  UNL1       -0.2291
     17 C         142.0983  143.0549  159.4870 C.ar    1  UNL1        0.1345
     18 H         144.5667  139.9321  157.9230 H       1  UNL1        0.1510
     19 C         145.2308  140.2888  154.9325 C.3     1  UNL1        0.0230
     20 C         145.6333  140.8386  156.2688 C.3     1  UNL1        0.0910
     21 C         139.9584  138.4021  164.0354 C.3     1  UNL1        0.0722
     22 C         139.8073  138.9005  165.4420 C.3     1  UNL1        0.0194
     23 C         140.9808  139.5063  166.1532 C.3     1  UNL1        0.0231
     24 C         140.8296  140.0047  167.5600 C.3     1  UNL1        0.0968
     25 N         139.5049  139.8973  168.2554 N.am    1  UNL1       -0.2460
     26 C         139.3537  140.3957  169.6620 C.2     1  UNL1        0.4049
     27 O         138.0290  140.2884  170.3575 O.2     1  UNL1       -0.2262
     28 C         138.3314  139.2915  167.5441 C.3     1  UNL1        0.0968
     29 C         138.4825  138.7931  166.1375 C.3     1  UNL1        0.0231
     30 O         140.5273  141.0015  170.3732 O.3     1  UNL1       -0.4345
     31 C         140.5354  142.4670  170.6934 C.3     1  UNL1        0.2102
     32 C         140.4464  143.4767  169.5877 C.3     1  UNL1        0.0513
@<TRIPOS>BOND
     1    19    20    1
     2    20     1    1
     3     1     2   am
     4     2     3    2
     5     2     4   am
     6     4     5    1
     7     5     6    1
     8     6     7    1
     9     7     8    1
    10     8     9    1
    11     9    21    1
    12    21    22    1
    13    22    23    1
    14    23    24    1
    15    24    25    1
    16    25    26   am
    17    26    27    2
    18    26    30    1
    19    30    31    1
    20    31    32    1
    21    25    28    1
    22    28    29    1
    23     9    10    1
    24    10    11    1
    25     6    12    1
    26    12    13   ar
    27    13    14   ar
    28    14    15   ar
    29    15    16   ar
    30    16    17   ar
    31    17     4    1
    32    11     6    1
    33    17    12   ar
    34    29    22    1
    35     1    18    1
@<TRIPOS>MOLECULE
*****
 32 35 0 0 0
SMALL
GASTEIGER

@<TRIPOS>ATOM
      1 N         142.3233  136.0383  156.9255 N.am    1  UNL1       -0.2885
      2 C         143.1036  137.3194  156.9216 C.2     1  UNL1        0.3088
      3 O         144.2472  137.4981  155.9676 O.2     1  UNL1       -0.2522
      4 N         142.7404  138.4216  157.8719 N.am    1  UNL1       -0.2282
      5 C         141.6282  138.3877  158.8779 C.3     1  UNL1        0.1053
      6 C         141.6259  139.6964  159.6108 C.3     1  UNL1        0.0430
      7 C         140.5592  138.7430  160.0615 C.3     1  UNL1        0.0232
      8 C         139.6125  139.1394  161.1553 C.3     1  UNL1        0.0725
      9 N         139.7324  140.4892  161.7985 N.3     1  UNL1       -0.2727
     10 C         140.7991  141.4426  161.3479 C.3     1  UNL1        0.0725
     11 C         141.7459  141.0462  160.2540 C.3     1  UNL1        0.0232
     12 C         142.7368  140.5393  159.0578 C.ar    1  UNL1        0.0109
     13 C         143.2100  141.9224  159.3940 C.ar    1  UNL1        0.0001
     14 C         144.3720  142.5177  158.6555 C.ar    1  UNL1        0.0204
     15 C         145.0608  141.7297  157.5808 C.ar    1  UNL1        0.1003
     16 N         144.5875  140.3467  157.2446 N.ar    1  UNL1       -0.2291
     17 C         143.4255  139.7514  157.9831 C.ar    1  UNL1        0.1345
     18 H         141.5727  135.9210  157.5516 H       1  UNL1        0.1510
     19 C         142.5449  133.5040  156.3983 C.3     1  UNL1        0.0230
     20 C         142.6865  134.9361  155.9752 C.3     1  UNL1        0.0910
     21 C         138.7856  140.8855  162.8924 C.3     1  UNL1        0.0722
     22 C         139.2254  140.8210  164.3250 C.3     1  UNL1        0.0194
     23 C         140.3290  141.7128  164.8116 C.3     1  UNL1        0.0231
     24 C         140.7688  141.6483  166.2443 C.3     1  UNL1        0.0968
     25 N         140.1051  140.6919  167.1902 N.am    1  UNL1       -0.2460
     26 C         140.5450  140.6273  168.6228 C.2     1  UNL1        0.4049
     27 O         139.8813  139.6709  169.5688 O.2     1  UNL1       -0.2262
     28 C         139.0016  139.8000  166.7035 C.3     1  UNL1        0.0968
     29 C         138.5618  139.8645  165.2710 C.3     1  UNL1        0.0231
     30 O         141.6485  141.5192  169.1094 O.3     1  UNL1       -0.4345
     31 C         141.3434  142.6406  170.0579 C.3     1  UNL1        0.2102
     32 C         140.4097  143.7394  169.6446 C.3     1  UNL1        0.0513
@<TRIPOS>BOND
     1    19    20    1
     2    20     1    1
     3     1     2   am
     4     2     3    2
     5     2     4   am
     6     4     5    1
     7     5     6    1
     8     6     7    1
     9     7     8    1
    10     8     9    1
    11     9    21    1
    12    21    22    1
    13    22    23    1
    14    23    24    1
    15    24    25    1
    16    25    26   am
    17    26    27    2
    18    26    30    1
    19    30    31    1
    20    31    32    1
    21    25    28    1
    22    28    29    1
    23     9    10    1
    24    10    11    1
    25     6    12    1
    26    12    13   ar
    27    13    14   ar
    28    14    15   ar
    29    15    16   ar
    30    16    17   ar
    31    17     4    1
    32    11     6    1
    33    17    12   ar
    34    29    22    1
    35     1    18    1
@<TRIPOS>MOLECULE
*****
 32 35 0 0 0
SMALL
GASTEIGER

@<TRIPOS>ATOM
      1 N         139.0226  139.3560  164.7333 N.am    1  UNL1       -0.2885
      2 C         140.3614  140.0267  164.8204 C.2     1  UNL1        0.3088
      3 O         140.7930  140.6761  166.1017 O.2     1  UNL1       -0.2522
      4 N         141.2687  140.0481  163.6261 N.am    1  UNL1       -0.2282
      5 C         140.9750  139.4440  162.2848 C.3     1  UNL1        0.1053
      6 C         142.1537  139.6998  161.3930 C.3     1  UNL1        0.0430
      7 C         141.0423  138.9396  160.7321 C.3     1  UNL1        0.0232
      8 C         141.1755  138.5089  159.3015 C.3     1  UNL1        0.0725
      9 N         142.4201  138.8384  158.5318 N.3     1  UNL1       -0.2727
     10 C         143.5315  139.5986  159.1927 C.3     1  UNL1        0.0725
     11 C         143.3983  140.0293  160.6233 C.3     1  UNL1        0.0232
     12 C         143.1759  140.4620  162.1832 C.ar    1  UNL1        0.0109
     13 C         144.5341  140.9878  161.8243 C.ar    1  UNL1        0.0001
     14 C         145.3454  141.7288  162.8454 C.ar    1  UNL1        0.0204
     15 C         144.7983  141.9440  164.2255 C.ar    1  UNL1        0.1003
     16 N         143.4402  141.4182  164.5844 N.ar    1  UNL1       -0.2291
     17 C         142.6290  140.6772  163.5632 C.ar    1  UNL1        0.1345
     18 H         138.7393  138.9298  163.8922 H       1  UNL1        0.1510
     19 C         137.7878  138.0332  166.5975 C.3     1  UNL1        0.0230
     20 C         138.1153  139.3347  165.9276 C.3     1  UNL1        0.0910
     21 C         142.5532  138.4077  157.1011 C.3     1  UNL1        0.0722
     22 C         142.4348  136.9565  156.7406 C.3     1  UNL1        0.0194
     23 C         141.4979  136.5285  155.6502 C.3     1  UNL1        0.0231
     24 C         141.3796  135.0772  155.2898 C.3     1  UNL1        0.0968
     25 N         142.1982  134.0540  156.0197 N.am    1  UNL1       -0.2460
     26 C         142.0798  132.6028  155.6593 C.2     1  UNL1        0.4049
     27 O         142.8984  131.5795  156.3893 O.2     1  UNL1       -0.2262
     28 C         143.1351  134.4820  157.1102 C.3     1  UNL1        0.0968
     29 C         143.2534  135.9332  157.4706 C.3     1  UNL1        0.0231
     30 O         141.1429  132.1748  154.5689 O.3     1  UNL1       -0.4345
     31 C         140.8164  130.7220  154.3879 C.3     1  UNL1        0.2102
     32 C         139.4950  130.1866  154.8541 C.3     1  UNL1        0.0513
@<TRIPOS>BOND
     1    19    20    1
     2    20     1    1
     3     1     2   am
     4     2     3    2
     5     2     4   am
     6     4     5    1
     7     5     6    1
     8     6     7    1
     9     7     8    1
    10     8     9    1
    11     9    21    1
    12    21    22    1
    13    22    23    1
    14    23    24    1
    15    24    25    1
    16    25    26   am
    17    26    27    2
    18    26    30    1
    19    30    31    1
    20    31    32    1
    21    25    28    1
    22    28    29    1
    23     9    10    1
    24    10    11    1
    25     6    12    1
    26    12    13   ar
    27    13    14   ar
    28    14    15   ar
    29    15    16   ar
    30    16    17   ar
    31    17     4    1
    32    11     6    1
    33    17    12   ar
    34    29    22    1
    35     1    18    1
