@<TRIPOS>MOLECULE
*****
 42 47 0 0 0
SMALL
GASTEIGER

@<TRIPOS>ATOM
      1 C         141.0670  141.7094  169.4883 C.ar    1  UNL1        0.0769
      2 C         142.1274  141.7383  168.4279 C.ar    1  UNL1        0.0065
      3 C         141.9553  140.9347  167.1730 C.ar    1  UNL1        0.0016
      4 C         140.7229  140.1021  166.9787 C.ar    1  UNL1        0.0191
      5 C         139.6625  140.0732  168.0392 C.ar    1  UNL1        0.0509
      6 C         139.8346  140.8768  169.2940 C.ar    1  UNL1        0.0211
      7 N         138.5635  139.1658  167.5712 N.am    1  UNL1       -0.2803
      8 C         138.9447  138.6339  166.2215 C.2     1  UNL1        0.2507
      9 O         138.1338  137.6892  165.3847 O.2     1  UNL1       -0.2698
     10 C         140.2793  139.2126  165.8553 C.2     1  UNL1        0.0682
     11 C         141.0372  138.9483  164.5882 C.2     1  UNL1        0.0527
     12 H         137.7371  138.9561  168.0635 H       1  UNL1        0.1552
     13 C         142.3679  139.6019  164.3598 C.ar    1  UNL1        0.0136
     14 C         143.6287  138.8987  164.7671 C.ar    1  UNL1        0.0012
     15 C         144.9594  139.5524  164.5388 C.ar    1  UNL1        0.0000
     16 C         145.0292  140.9092  163.9031 C.ar    1  UNL1        0.0000
     17 C         143.7684  141.6125  163.4958 C.ar    1  UNL1        0.0000
     18 C         142.4378  140.9588  163.7242 C.ar    1  UNL1        0.0012
     19 C         141.2391  142.5130  170.7432 C.2     1  UNL1        0.3414
     20 O         140.4979  142.1267  171.9887 O.2     1  UNL1       -0.2449
     21 C         143.6377  143.5077  170.8275 C.3     1  UNL1        0.2560
     22 O         142.1524  143.7028  170.7525 O.3     1  UNL1       -0.4413
     23 N         140.4645  138.0303  163.5493 N.pl3   1  UNL1       -0.3124
     24 H         140.4836  137.0559  163.6890 H       1  UNL1        0.1522
     25 C         139.8628  138.5968  162.2975 C.ar    1  UNL1        0.0495
     26 C         138.5712  139.3565  162.3634 C.ar    1  UNL1        0.0144
     27 C         137.9695  139.9230  161.1116 C.ar    1  UNL1       -0.0017
     28 C         138.6595  139.7299  159.7938 C.ar    1  UNL1       -0.0067
     29 C         139.9512  138.9702  159.7279 C.ar    1  UNL1        0.0512
     30 C         140.5529  138.4037  160.9797 C.ar    1  UNL1        0.0292
     31 N         140.3989  138.9404  158.2965 N.am    1  UNL1       -0.2572
     32 C         141.6432  138.2845  157.7754 C.2     1  UNL1        0.2496
     33 O         142.5689  137.5758  158.7190 O.2     1  UNL1       -0.2727
     34 C         139.3838  139.6817  157.4779 C.3     1  UNL1        0.1029
     35 C         138.3088  140.1696  158.4033 C.3     1  UNL1        0.0495
     36 C         141.9616  138.3374  156.3105 C.3     1  UNL1        0.1796
     37 N         142.0511  137.0682  155.5161 N.am    1  UNL1       -0.2713
     38 C         140.8979  136.3230  154.9122 C.3     1  UNL1        0.0944
     39 C         141.4435  135.1156  154.2090 C.3     1  UNL1        0.0311
     40 C         142.9340  135.1147  154.3783 C.3     1  UNL1        0.0871
     41 C         143.3094  136.3215  155.1862 C.2     1  UNL1        0.2260
     42 O         144.6992  136.7128  155.5927 O.2     1  UNL1       -0.2749
@<TRIPOS>BOND
     1    21    22    1
     2    22    19    1
     3    19    20    2
     4    19     1    1
     5     1     2   ar
     6     2     3   ar
     7     3     4   ar
     8     4     5   ar
     9     5     6   ar
    10     5     7    1
    11     7     8   am
    12     8     9    2
    13     8    10    1
    14    10    11    2
    15    11    23    1
    16    23    25    1
    17    25    26   ar
    18    26    27   ar
    19    27    28   ar
    20    28    29   ar
    21    29    30   ar
    22    29    31    1
    23    31    32   am
    24    32    33    2
    25    32    36    1
    26    36    37    1
    27    37    38    1
    28    38    39    1
    29    39    40    1
    30    40    41    1
    31    41    42    2
    32    31    34    1
    33    34    35    1
    34    11    13    1
    35    13    14   ar
    36    14    15   ar
    37    15    16   ar
    38    16    17   ar
    39    17    18   ar
    40     6     1   ar
    41    30    25   ar
    42    41    37   am
    43    18    13   ar
    44    10     4    1
    45    35    28    1
    46     7    12    1
    47    23    24    1
@<TRIPOS>MOLECULE
*****
 42 47 0 0 0
SMALL
GASTEIGER

@<TRIPOS>ATOM
      1 C         140.0762  141.9547  169.4066 C.ar    1  UNL1        0.0769
      2 C         140.7712  142.8572  168.4307 C.ar    1  UNL1        0.0065
      3 C         140.8453  142.4792  166.9810 C.ar    1  UNL1        0.0016
      4 C         140.2245  141.1986  166.5072 C.ar    1  UNL1        0.0191
      5 C         139.5296  140.2960  167.4831 C.ar    1  UNL1        0.0509
      6 C         139.4554  140.6740  168.9328 C.ar    1  UNL1        0.0211
      7 N         139.0146  139.1062  166.7285 N.am    1  UNL1       -0.2803
      8 C         139.3913  139.2735  165.2862 C.2     1  UNL1        0.2507
      9 O         139.0757  138.3159  164.1757 O.2     1  UNL1       -0.2698
     10 C         140.1391  140.5667  165.1495 C.2     1  UNL1        0.0682
     11 C         140.7025  141.1292  163.8782 C.2     1  UNL1        0.0527
     12 H         138.5168  138.3486  167.1124 H       1  UNL1        0.1552
     13 C         141.4301  142.4407  163.8961 C.ar    1  UNL1        0.0136
     14 C         142.8970  142.4805  164.2070 C.ar    1  UNL1        0.0012
     15 C         143.6246  143.7922  164.2248 C.ar    1  UNL1        0.0000
     16 C         142.8853  145.0640  163.9316 C.ar    1  UNL1        0.0000
     17 C         141.4184  145.0242  163.6207 C.ar    1  UNL1        0.0000
     18 C         140.6909  143.7126  163.6029 C.ar    1  UNL1        0.0012
     19 C         140.0021  142.3327  170.8563 C.2     1  UNL1        0.3414
     20 O         139.0752  143.4253  171.3000 O.2     1  UNL1       -0.2449
     21 C         142.0670  140.8575  171.4127 C.3     1  UNL1        0.2560
     22 O         140.8549  141.6181  171.8623 O.3     1  UNL1       -0.4413
     23 N         140.5383  140.3801  162.5891 N.pl3   1  UNL1       -0.3124
     24 H         139.7769  139.7676  162.4692 H       1  UNL1        0.1522
     25 C         141.5340  140.5644  161.4825 C.ar    1  UNL1        0.0495
     26 C         142.8037  139.7658  161.4753 C.ar    1  UNL1        0.0144
     27 C         143.7994  139.9501  160.3687 C.ar    1  UNL1       -0.0017
     28 C         143.5255  140.9330  159.2693 C.ar    1  UNL1       -0.0067
     29 C         142.2558  141.7316  159.2764 C.ar    1  UNL1        0.0512
     30 C         141.2601  141.5473  160.3830 C.ar    1  UNL1        0.0292
     31 N         142.2598  142.6193  158.0673 N.am    1  UNL1       -0.2572
     32 C         141.1810  143.5872  157.6805 C.2     1  UNL1        0.2496
     33 O         139.9586  143.7297  158.5381 O.2     1  UNL1       -0.2727
     34 C         143.5319  142.3693  157.3129 C.3     1  UNL1        0.1029
     35 C         144.3142  141.3271  158.0558 C.3     1  UNL1        0.0495
     36 C         141.3246  144.4124  156.4362 C.3     1  UNL1        0.1796
     37 N         140.1567  145.1984  155.9185 N.am    1  UNL1       -0.2713
     38 C         140.0739  146.6929  155.8197 C.3     1  UNL1        0.0944
     39 C         138.7325  147.0461  155.2489 C.3     1  UNL1        0.0311
     40 C         137.9862  145.7698  154.9949 C.3     1  UNL1        0.0871
     41 C         138.8665  144.6280  155.4088 C.2     1  UNL1        0.2260
     42 O         138.5176  143.1714  155.3272 O.2     1  UNL1       -0.2749
@<TRIPOS>BOND
     1    21    22    1
     2    22    19    1
     3    19    20    2
     4    19     1    1
     5     1     2   ar
     6     2     3   ar
     7     3     4   ar
     8     4     5   ar
     9     5     6   ar
    10     5     7    1
    11     7     8   am
    12     8     9    2
    13     8    10    1
    14    10    11    2
    15    11    23    1
    16    23    25    1
    17    25    26   ar
    18    26    27   ar
    19    27    28   ar
    20    28    29   ar
    21    29    30   ar
    22    29    31    1
    23    31    32   am
    24    32    33    2
    25    32    36    1
    26    36    37    1
    27    37    38    1
    28    38    39    1
    29    39    40    1
    30    40    41    1
    31    41    42    2
    32    31    34    1
    33    34    35    1
    34    11    13    1
    35    13    14   ar
    36    14    15   ar
    37    15    16   ar
    38    16    17   ar
    39    17    18   ar
    40     6     1   ar
    41    30    25   ar
    42    41    37   am
    43    18    13   ar
    44    10     4    1
    45    35    28    1
    46     7    12    1
    47    23    24    1
@<TRIPOS>MOLECULE
*****
 42 47 0 0 0
SMALL
GASTEIGER

@<TRIPOS>ATOM
      1 C         140.8955  142.1368  168.7739 C.ar    1  UNL1        0.0769
      2 C         142.0328  142.2513  167.8026 C.ar    1  UNL1        0.0065
      3 C         142.0453  141.4114  166.5599 C.ar    1  UNL1        0.0016
      4 C         140.9204  140.4570  166.2884 C.ar    1  UNL1        0.0191
      5 C         139.7831  140.3425  167.2596 C.ar    1  UNL1        0.0509
      6 C         139.7706  141.1824  168.5024 C.ar    1  UNL1        0.0211
      7 N         138.8207  139.3218  166.7283 N.am    1  UNL1       -0.2803
      8 C         139.3633  138.8056  165.4287 C.2     1  UNL1        0.2507
      9 O         138.7211  137.7696  164.5545 O.2     1  UNL1       -0.2698
     10 C         140.6610  139.5071  165.1569 C.2     1  UNL1        0.0682
     11 C         141.5442  139.2959  163.9630 C.2     1  UNL1        0.0527
     12 H         137.9805  139.0403  167.1573 H       1  UNL1        0.1552
     13 C         142.8192  140.0741  163.8262 C.ar    1  UNL1        0.0136
     14 C         144.1075  139.4986  164.3351 C.ar    1  UNL1        0.0012
     15 C         145.3825  140.2770  164.1982 C.ar    1  UNL1        0.0000
     16 C         145.3692  141.6308  163.5524 C.ar    1  UNL1        0.0000
     17 C         144.0808  142.2062  163.0434 C.ar    1  UNL1        0.0000
     18 C         142.8059  141.4279  163.1803 C.ar    1  UNL1        0.0012
     19 C         140.8830  142.9768  170.0166 C.2     1  UNL1        0.3414
     20 O         140.1749  144.2991  170.0210 O.2     1  UNL1       -0.2449
     21 C         141.8902  141.0365  171.4204 C.3     1  UNL1        0.2560
     22 O         141.5786  142.4944  171.2549 O.3     1  UNL1       -0.4413
     23 N         141.1525  138.3064  162.9059 N.pl3   1  UNL1       -0.3124
     24 H         140.7504  137.4452  163.1626 H       1  UNL1        0.1522
     25 C         141.3734  138.6290  161.4578 C.ar    1  UNL1        0.0495
     26 C         142.4322  137.9041  160.6809 C.ar    1  UNL1        0.0144
     27 C         142.6531  138.2267  159.2328 C.ar    1  UNL1       -0.0017
     28 C         141.8152  139.2743  158.5615 C.ar    1  UNL1       -0.0067
     29 C         140.7564  139.9991  159.3384 C.ar    1  UNL1        0.0512
     30 C         140.5355  139.6765  160.7865 C.ar    1  UNL1        0.0292
     31 N         140.0905  140.9755  158.4146 N.am    1  UNL1       -0.2572
     32 C         138.9734  141.9094  158.7754 C.2     1  UNL1        0.2496
     33 O         138.4249  141.9188  160.1715 O.2     1  UNL1       -0.2727
     34 C         140.7376  140.8540  157.0669 C.3     1  UNL1        0.1029
     35 C         141.8036  139.8026  157.1577 C.3     1  UNL1        0.0495
     36 C         138.4048  142.8339  157.7400 C.3     1  UNL1        0.1796
     37 N         137.3323  142.3495  156.8099 N.am    1  UNL1       -0.2713
     38 C         136.6953  140.9916  156.8296 C.3     1  UNL1        0.0944
     39 C         135.6778  140.9409  155.7288 C.3     1  UNL1        0.0311
     40 C         135.6858  142.2675  155.0287 C.3     1  UNL1        0.0871
     41 C         136.7084  143.1381  155.6969 C.2     1  UNL1        0.2260
     42 O         137.0474  144.5494  155.3185 O.2     1  UNL1       -0.2749
@<TRIPOS>BOND
     1    21    22    1
     2    22    19    1
     3    19    20    2
     4    19     1    1
     5     1     2   ar
     6     2     3   ar
     7     3     4   ar
     8     4     5   ar
     9     5     6   ar
    10     5     7    1
    11     7     8   am
    12     8     9    2
    13     8    10    1
    14    10    11    2
    15    11    23    1
    16    23    25    1
    17    25    26   ar
    18    26    27   ar
    19    27    28   ar
    20    28    29   ar
    21    29    30   ar
    22    29    31    1
    23    31    32   am
    24    32    33    2
    25    32    36    1
    26    36    37    1
    27    37    38    1
    28    38    39    1
    29    39    40    1
    30    40    41    1
    31    41    42    2
    32    31    34    1
    33    34    35    1
    34    11    13    1
    35    13    14   ar
    36    14    15   ar
    37    15    16   ar
    38    16    17   ar
    39    17    18   ar
    40     6     1   ar
    41    30    25   ar
    42    41    37   am
    43    18    13   ar
    44    10     4    1
    45    35    28    1
    46     7    12    1
    47    23    24    1
@<TRIPOS>MOLECULE
*****
 42 47 0 0 0
SMALL
GASTEIGER

@<TRIPOS>ATOM
      1 C         140.8363  141.7847  168.9434 C.ar    1  UNL1        0.0769
      2 C         141.9665  141.8868  167.9625 C.ar    1  UNL1        0.0065
      3 C         141.9468  141.0655  166.7075 C.ar    1  UNL1        0.0016
      4 C         140.7970  140.1422  166.4333 C.ar    1  UNL1        0.0191
      5 C         139.6668  140.0401  167.4142 C.ar    1  UNL1        0.0509
      6 C         139.6864  140.8613  168.6692 C.ar    1  UNL1        0.0211
      7 N         138.6753  139.0505  166.8776 N.am    1  UNL1       -0.2803
      8 C         139.1928  138.5411  165.5651 C.2     1  UNL1        0.2507
      9 O         138.5176  137.5338  164.6822 O.2     1  UNL1       -0.2698
     10 C         140.5041  139.2158  165.2905 C.2     1  UNL1        0.0682
     11 C         141.3703  139.0016  164.0848 C.2     1  UNL1        0.0527
     12 H         137.8328  138.7825  167.3108 H       1  UNL1        0.1552
     13 C         142.6621  139.7515  163.9466 C.ar    1  UNL1        0.0136
     14 C         142.6812  141.0968  163.2835 C.ar    1  UNL1        0.0012
     15 C         143.9730  141.8466  163.1453 C.ar    1  UNL1        0.0000
     16 C         145.2457  141.2511  163.6703 C.ar    1  UNL1        0.0000
     17 C         145.2266  139.9057  164.3334 C.ar    1  UNL1        0.0000
     18 C         143.9348  139.1560  164.4716 C.ar    1  UNL1        0.0012
     19 C         140.8559  142.6059  170.1985 C.2     1  UNL1        0.3414
     20 O         139.6965  143.4982  170.5291 O.2     1  UNL1       -0.2449
     21 C         143.2476  143.3772  170.8580 C.3     1  UNL1        0.2560
     22 O         142.0350  142.5349  171.1229 O.3     1  UNL1       -0.4413
     23 N         140.9449  138.0376  163.0173 N.pl3   1  UNL1       -0.3124
     24 H         140.9886  137.0683  163.1836 H       1  UNL1        0.1522
     25 C         140.4528  138.5506  161.6964 C.ar    1  UNL1        0.0495
     26 C         138.9852  138.7681  161.4758 C.ar    1  UNL1        0.0144
     27 C         138.4931  139.2810  160.1550 C.ar    1  UNL1       -0.0017
     28 C         139.4687  139.5764  159.0545 C.ar    1  UNL1       -0.0067
     29 C         140.9363  139.3589  159.2751 C.ar    1  UNL1        0.0512
     30 C         141.4284  138.8460  160.5960 C.ar    1  UNL1        0.0292
     31 N         141.6554  139.7356  158.0137 N.am    1  UNL1       -0.2572
     32 C         143.1376  139.6730  157.7914 C.2     1  UNL1        0.2496
     33 O         144.0414  139.1991  158.8907 O.2     1  UNL1       -0.2727
     34 C         140.6321  140.1859  157.0136 C.3     1  UNL1        0.1029
     35 C         139.2807  140.0875  157.6569 C.3     1  UNL1        0.0495
     36 C         143.7158  140.0843  156.4699 C.3     1  UNL1        0.1796
     37 N         144.9799  140.8903  156.4226 N.am    1  UNL1       -0.2713
     38 C         146.1013  140.7148  155.4419 C.3     1  UNL1        0.0944
     39 C         147.1591  141.7294  155.7608 C.3     1  UNL1        0.0311
     40 C         146.6914  142.5319  156.9387 C.3     1  UNL1        0.0871
     41 C         145.3446  142.0133  157.3476 C.2     1  UNL1        0.2260
     42 O         144.5093  142.5275  158.4824 O.2     1  UNL1       -0.2749
@<TRIPOS>BOND
     1    21    22    1
     2    22    19    1
     3    19    20    2
     4    19     1    1
     5     1     2   ar
     6     2     3   ar
     7     3     4   ar
     8     4     5   ar
     9     5     6   ar
    10     5     7    1
    11     7     8   am
    12     8     9    2
    13     8    10    1
    14    10    11    2
    15    11    23    1
    16    23    25    1
    17    25    26   ar
    18    26    27   ar
    19    27    28   ar
    20    28    29   ar
    21    29    30   ar
    22    29    31    1
    23    31    32   am
    24    32    33    2
    25    32    36    1
    26    36    37    1
    27    37    38    1
    28    38    39    1
    29    39    40    1
    30    40    41    1
    31    41    42    2
    32    31    34    1
    33    34    35    1
    34    11    13    1
    35    13    14   ar
    36    14    15   ar
    37    15    16   ar
    38    16    17   ar
    39    17    18   ar
    40     6     1   ar
    41    30    25   ar
    42    41    37   am
    43    18    13   ar
    44    10     4    1
    45    35    28    1
    46     7    12    1
    47    23    24    1
@<TRIPOS>MOLECULE
*****
 42 47 0 0 0
SMALL
GASTEIGER

@<TRIPOS>ATOM
      1 C         141.0513  141.7207  169.3007 C.ar    1  UNL1        0.0769
      2 C         142.1454  141.8295  168.2804 C.ar    1  UNL1        0.0065
      3 C         142.0498  141.0647  166.9936 C.ar    1  UNL1        0.0016
      4 C         140.8600  140.1910  166.7271 C.ar    1  UNL1        0.0191
      5 C         139.7658  140.0822  167.7473 C.ar    1  UNL1        0.0509
      6 C         139.8615  140.8471  169.0341 C.ar    1  UNL1        0.0211
      7 N         138.7218  139.1489  167.2097 N.am    1  UNL1       -0.2803
      8 C         139.1707  138.6809  165.8572 C.2     1  UNL1        0.2507
      9 O         138.4286  137.7349  164.9603 O.2     1  UNL1       -0.2698
     10 C         140.4922  139.3250  165.5589 C.2     1  UNL1        0.0682
     11 C         141.3035  139.1362  164.3114 C.2     1  UNL1        0.0527
     12 H         137.8883  138.8891  167.6647 H       1  UNL1        0.1552
     13 C         142.6132  139.8500  164.1533 C.ar    1  UNL1        0.0136
     14 C         143.8954  139.1481  164.4898 C.ar    1  UNL1        0.0012
     15 C         145.2052  139.8620  164.3316 C.ar    1  UNL1        0.0000
     16 C         145.2326  141.2778  163.8368 C.ar    1  UNL1        0.0000
     17 C         143.9504  141.9797  163.5003 C.ar    1  UNL1        0.0000
     18 C         142.6408  141.2658  163.6585 C.ar    1  UNL1        0.0012
     19 C         141.1469  142.4856  170.5875 C.2     1  UNL1        0.3414
     20 O         140.4492  141.9789  171.8148 O.2     1  UNL1       -0.2449
     21 C         143.4019  143.7143  170.9818 C.3     1  UNL1        0.2560
     22 O         141.9404  143.7571  170.6470 O.3     1  UNL1       -0.4413
     23 N         140.8050  138.2335  163.2221 N.pl3   1  UNL1       -0.3124
     24 H         140.2468  137.4539  163.4456 H       1  UNL1        0.1522
     25 C         141.1571  138.5185  161.7921 C.ar    1  UNL1        0.0495
     26 C         142.2096  137.7026  161.1019 C.ar    1  UNL1        0.0144
     27 C         142.5617  137.9876  159.6719 C.ar    1  UNL1       -0.0017
     28 C         141.8611  139.0885  158.9321 C.ar    1  UNL1       -0.0067
     29 C         140.8086  139.9044  159.6224 C.ar    1  UNL1        0.0512
     30 C         140.4565  139.6194  161.0523 C.ar    1  UNL1        0.0292
     31 N         140.2919  140.9175  158.6442 N.am    1  UNL1       -0.2572
     32 C         139.2287  141.9407  158.9136 C.2     1  UNL1        0.2496
     33 O         138.5811  142.0116  160.2647 O.2     1  UNL1       -0.2727
     34 C         141.0252  140.7277  157.3495 C.3     1  UNL1        0.1029
     35 C         141.9951  139.5974  157.5275 C.3     1  UNL1        0.0495
     36 C         138.8130  142.8930  157.8318 C.3     1  UNL1        0.1796
     37 N         139.7349  143.9989  157.4111 N.am    1  UNL1       -0.2713
     38 C         140.3121  144.1922  156.0402 C.3     1  UNL1        0.0944
     39 C         141.1755  145.4184  156.0693 C.3     1  UNL1        0.0311
     40 C         141.1319  145.9831  157.4583 C.3     1  UNL1        0.0871
     41 C         140.2416  145.1058  158.2876 C.2     1  UNL1        0.2260
     42 O         139.9152  145.3011  159.7386 O.2     1  UNL1       -0.2749
@<TRIPOS>BOND
     1    21    22    1
     2    22    19    1
     3    19    20    2
     4    19     1    1
     5     1     2   ar
     6     2     3   ar
     7     3     4   ar
     8     4     5   ar
     9     5     6   ar
    10     5     7    1
    11     7     8   am
    12     8     9    2
    13     8    10    1
    14    10    11    2
    15    11    23    1
    16    23    25    1
    17    25    26   ar
    18    26    27   ar
    19    27    28   ar
    20    28    29   ar
    21    29    30   ar
    22    29    31    1
    23    31    32   am
    24    32    33    2
    25    32    36    1
    26    36    37    1
    27    37    38    1
    28    38    39    1
    29    39    40    1
    30    40    41    1
    31    41    42    2
    32    31    34    1
    33    34    35    1
    34    11    13    1
    35    13    14   ar
    36    14    15   ar
    37    15    16   ar
    38    16    17   ar
    39    17    18   ar
    40     6     1   ar
    41    30    25   ar
    42    41    37   am
    43    18    13   ar
    44    10     4    1
    45    35    28    1
    46     7    12    1
    47    23    24    1
@<TRIPOS>MOLECULE
*****
 42 47 0 0 0
SMALL
GASTEIGER

@<TRIPOS>ATOM
      1 C         139.1594  140.2104  165.8258 C.ar    1  UNL1        0.0769
      2 C         140.6383  140.3607  165.6250 C.ar    1  UNL1        0.0065
      3 C         141.1653  141.4032  164.6840 C.ar    1  UNL1        0.0016
      4 C         140.2135  142.2954  163.9439 C.ar    1  UNL1        0.0191
      5 C         138.7346  142.1452  164.1447 C.ar    1  UNL1        0.0509
      6 C         138.2076  141.1026  165.0856 C.ar    1  UNL1        0.0211
      7 N         138.0443  143.1611  163.2836 N.am    1  UNL1       -0.2803
      8 C         139.0966  143.9393  162.5507 C.2     1  UNL1        0.2507
      9 O         138.8513  145.0564  161.5801 O.2     1  UNL1       -0.2698
     10 C         140.4372  143.4043  162.9588 C.2     1  UNL1        0.0682
     11 C         141.7679  143.8923  162.4679 C.2     1  UNL1        0.0527
     12 H         137.0714  143.2939  163.2121 H       1  UNL1        0.1552
     13 C         143.0310  143.2566  162.9681 C.ar    1  UNL1        0.0136
     14 C         143.6143  142.0780  162.2465 C.ar    1  UNL1        0.0012
     15 C         144.8776  141.4423  162.7468 C.ar    1  UNL1        0.0000
     16 C         145.5575  141.9852  163.9687 C.ar    1  UNL1        0.0000
     17 C         144.9742  143.1638  164.6903 C.ar    1  UNL1        0.0000
     18 C         143.7110  143.7995  164.1900 C.ar    1  UNL1        0.0012
     19 C         138.6324  139.1678  166.7667 C.2     1  UNL1        0.3414
     20 O         138.4994  139.4755  168.2287 O.2     1  UNL1       -0.2449
     21 C         138.7437  137.3515  164.9124 C.3     1  UNL1        0.2560
     22 O         138.2383  137.8176  166.2456 O.3     1  UNL1       -0.4413
     23 N         141.8355  145.0162  161.4768 N.pl3   1  UNL1       -0.3124
     24 H         141.8313  145.9496  161.7899 H       1  UNL1        0.1522
     25 C         141.9095  144.7180  160.0086 C.ar    1  UNL1        0.0495
     26 C         142.8164  143.6330  159.5084 C.ar    1  UNL1        0.0144
     27 C         142.8904  143.3348  158.0402 C.ar    1  UNL1       -0.0017
     28 C         142.0575  144.1217  157.0721 C.ar    1  UNL1       -0.0067
     29 C         141.1506  145.2067  157.5723 C.ar    1  UNL1        0.0512
     30 C         141.0766  145.5049  159.0405 C.ar    1  UNL1        0.0292
     31 N         140.4536  145.8103  156.3892 N.am    1  UNL1       -0.2572
     32 C         139.4557  146.9295  156.4302 C.2     1  UNL1        0.2496
     33 O         139.0749  147.5471  157.7431 O.2     1  UNL1       -0.2727
     34 C         140.9298  145.0984  155.1578 C.3     1  UNL1        0.1029
     35 C         141.9210  144.0547  155.5799 C.3     1  UNL1        0.0495
     36 C         138.8385  147.4311  155.1584 C.3     1  UNL1        0.1796
     37 N         139.4478  148.5971  154.4380 N.am    1  UNL1       -0.2713
     38 C         140.4591  148.5201  153.3328 C.3     1  UNL1        0.0944
     39 C         140.7892  149.9203  152.9081 C.3     1  UNL1        0.0311
     40 C         139.9819  150.8628  153.7509 C.3     1  UNL1        0.0871
     41 C         139.1530  150.0450  154.6964 C.2     1  UNL1        0.2260
     42 O         138.1970  150.5810  155.7205 O.2     1  UNL1       -0.2749
@<TRIPOS>BOND
     1    21    22    1
     2    22    19    1
     3    19    20    2
     4    19     1    1
     5     1     2   ar
     6     2     3   ar
     7     3     4   ar
     8     4     5   ar
     9     5     6   ar
    10     5     7    1
    11     7     8   am
    12     8     9    2
    13     8    10    1
    14    10    11    2
    15    11    23    1
    16    23    25    1
    17    25    26   ar
    18    26    27   ar
    19    27    28   ar
    20    28    29   ar
    21    29    30   ar
    22    29    31    1
    23    31    32   am
    24    32    33    2
    25    32    36    1
    26    36    37    1
    27    37    38    1
    28    38    39    1
    29    39    40    1
    30    40    41    1
    31    41    42    2
    32    31    34    1
    33    34    35    1
    34    11    13    1
    35    13    14   ar
    36    14    15   ar
    37    15    16   ar
    38    16    17   ar
    39    17    18   ar
    40     6     1   ar
    41    30    25   ar
    42    41    37   am
    43    18    13   ar
    44    10     4    1
    45    35    28    1
    46     7    12    1
    47    23    24    1
@<TRIPOS>MOLECULE
*****
 42 47 0 0 0
SMALL
GASTEIGER

@<TRIPOS>ATOM
      1 C         141.2721  141.2178  169.5168 C.ar    1  UNL1        0.0769
      2 C         140.4703  142.1026  168.6090 C.ar    1  UNL1        0.0065
      3 C         140.5383  141.9109  167.1229 C.ar    1  UNL1        0.0016
      4 C         141.4080  140.8343  166.5445 C.ar    1  UNL1        0.0191
      5 C         142.2098  139.9495  167.4523 C.ar    1  UNL1        0.0509
      6 C         142.1418  140.1412  168.9385 C.ar    1  UNL1        0.0211
      7 N         142.9725  138.9795  166.5992 N.am    1  UNL1       -0.2803
      8 C         142.6420  139.2650  165.1642 C.2     1  UNL1        0.2507
      9 O         143.1833  138.5327  163.9722 O.2     1  UNL1       -0.2698
     10 C         141.6751  140.4113  165.1304 C.2     1  UNL1        0.0682
     11 C         141.0798  141.0266  163.8987 C.2     1  UNL1        0.0527
     12 H         143.5828  138.2787  166.9242 H       1  UNL1        0.1552
     13 C         140.1217  142.1741  164.0216 C.ar    1  UNL1        0.0136
     14 C         140.6131  143.5821  163.8602 C.ar    1  UNL1        0.0012
     15 C         139.6549  144.7297  163.9831 C.ar    1  UNL1        0.0000
     16 C         138.2053  144.4692  164.2674 C.ar    1  UNL1        0.0000
     17 C         137.7139  143.0613  164.4289 C.ar    1  UNL1        0.0000
     18 C         138.6721  141.9138  164.3060 C.ar    1  UNL1        0.0012
     19 C         141.2042  141.4095  171.0030 C.2     1  UNL1        0.3414
     20 O         140.3290  140.5195  171.8347 O.2     1  UNL1       -0.2449
     21 C         142.9879  143.2921  170.8479 C.3     1  UNL1        0.2560
     22 O         142.0115  142.4912  171.6573 O.3     1  UNL1       -0.4413
     23 N         141.4426  140.4943  162.5441 N.pl3   1  UNL1       -0.3124
     24 H         142.3534  140.1616  162.3737 H       1  UNL1        0.1522
     25 C         140.4178  140.4690  161.4491 C.ar    1  UNL1        0.0495
     26 C         139.1586  139.6717  161.6186 C.ar    1  UNL1        0.0144
     27 C         138.1338  139.6463  160.5236 C.ar    1  UNL1       -0.0017
     28 C         138.3681  140.4183  159.2590 C.ar    1  UNL1       -0.0067
     29 C         139.6272  141.2156  159.0895 C.ar    1  UNL1        0.0512
     30 C         140.6521  141.2410  160.1845 C.ar    1  UNL1        0.0292
     31 N         139.5823  141.8720  157.7415 N.am    1  UNL1       -0.2572
     32 C         140.6388  142.7636  157.1593 C.2     1  UNL1        0.2496
     33 O         141.8799  143.0677  157.9449 O.2     1  UNL1       -0.2727
     34 C         138.2953  141.4804  157.0779 C.3     1  UNL1        0.1029
     35 C         137.5449  140.5819  158.0158 C.3     1  UNL1        0.0495
     36 C         140.4542  143.3511  155.7915 C.3     1  UNL1        0.1796
     37 N         140.0062  144.7746  155.6409 N.am    1  UNL1       -0.2713
     38 C         140.8901  145.9859  155.6793 C.3     1  UNL1        0.0944
     39 C         140.0258  147.1968  155.4876 C.3     1  UNL1        0.0311
     40 C         138.6077  146.7338  155.3307 C.3     1  UNL1        0.0871
     41 C         138.5956  145.2369  155.4254 C.2     1  UNL1        0.2260
     42 O         137.3853  144.3567  155.3227 O.2     1  UNL1       -0.2749
@<TRIPOS>BOND
     1    21    22    1
     2    22    19    1
     3    19    20    2
     4    19     1    1
     5     1     2   ar
     6     2     3   ar
     7     3     4   ar
     8     4     5   ar
     9     5     6   ar
    10     5     7    1
    11     7     8   am
    12     8     9    2
    13     8    10    1
    14    10    11    2
    15    11    23    1
    16    23    25    1
    17    25    26   ar
    18    26    27   ar
    19    27    28   ar
    20    28    29   ar
    21    29    30   ar
    22    29    31    1
    23    31    32   am
    24    32    33    2
    25    32    36    1
    26    36    37    1
    27    37    38    1
    28    38    39    1
    29    39    40    1
    30    40    41    1
    31    41    42    2
    32    31    34    1
    33    34    35    1
    34    11    13    1
    35    13    14   ar
    36    14    15   ar
    37    15    16   ar
    38    16    17   ar
    39    17    18   ar
    40     6     1   ar
    41    30    25   ar
    42    41    37   am
    43    18    13   ar
    44    10     4    1
    45    35    28    1
    46     7    12    1
    47    23    24    1
@<TRIPOS>MOLECULE
*****
 42 47 0 0 0
SMALL
GASTEIGER

@<TRIPOS>ATOM
      1 C         144.7772  142.0012  156.4366 C.ar    1  UNL1        0.0769
      2 C         144.7948  142.5817  157.8196 C.ar    1  UNL1        0.0065
      3 C         144.3157  141.7641  158.9824 C.ar    1  UNL1        0.0016
      4 C         143.8190  140.3661  158.7622 C.ar    1  UNL1        0.0191
      5 C         143.8013  139.7855  157.3792 C.ar    1  UNL1        0.0509
      6 C         144.2805  140.6031  156.2164 C.ar    1  UNL1        0.0211
      7 N         143.2600  138.3895  157.4693 N.am    1  UNL1       -0.2803
      8 C         142.9431  138.1072  158.9080 C.2     1  UNL1        0.2507
      9 O         142.3797  136.8280  159.4523 O.2     1  UNL1       -0.2698
     10 C         143.2886  139.3288  159.7070 C.2     1  UNL1        0.0682
     11 C         143.1312  139.4857  161.1905 C.2     1  UNL1        0.0527
     12 H         143.1347  137.7676  156.7164 H       1  UNL1        0.1552
     13 C         143.5213  140.7730  161.8542 C.ar    1  UNL1        0.0136
     14 C         144.8819  140.9178  162.4688 C.ar    1  UNL1        0.0012
     15 C         145.2720  142.2053  163.1325 C.ar    1  UNL1        0.0000
     16 C         144.3014  143.3479  163.1815 C.ar    1  UNL1        0.0000
     17 C         142.9408  143.2031  162.5669 C.ar    1  UNL1        0.0000
     18 C         142.5508  141.9157  161.9033 C.ar    1  UNL1        0.0012
     19 C         145.2563  142.8188  155.2739 C.2     1  UNL1        0.3414
     20 O         144.2780  143.6184  154.4655 O.2     1  UNL1       -0.2449
     21 C         147.6730  141.9402  155.6447 C.3     1  UNL1        0.2560
     22 O         146.7137  142.8368  154.9195 O.3     1  UNL1       -0.4413
     23 N         142.5838  138.3551  162.0103 N.pl3   1  UNL1       -0.3124
     24 H         142.9753  137.4552  161.9314 H       1  UNL1        0.1522
     25 C         141.4399  138.5956  162.9504 C.ar    1  UNL1        0.0495
     26 C         140.0286  138.5288  162.4469 C.ar    1  UNL1        0.0144
     27 C         138.8847  138.7693  163.3869 C.ar    1  UNL1       -0.0017
     28 C         139.1522  139.0766  164.8306 C.ar    1  UNL1       -0.0067
     29 C         140.5635  139.1434  165.3340 C.ar    1  UNL1        0.0512
     30 C         141.7074  138.9029  164.3940 C.ar    1  UNL1        0.0292
     31 N         140.5184  139.4648  166.7985 N.am    1  UNL1       -0.2572
     32 C         141.7044  139.6260  167.7027 C.2     1  UNL1        0.2496
     33 O         143.0918  139.4640  167.1561 O.2     1  UNL1       -0.2727
     34 C         139.0792  139.5966  167.2001 C.3     1  UNL1        0.1029
     35 C         138.2348  139.3567  165.9838 C.3     1  UNL1        0.0495
     36 C         141.5030  139.9492  169.1536 C.3     1  UNL1        0.1796
     37 N         141.1103  141.3371  169.5652 N.am    1  UNL1       -0.2713
     38 C         139.8002  141.7383  170.1758 C.3     1  UNL1        0.0944
     39 C         139.8390  143.2167  170.4266 C.3     1  UNL1        0.0311
     40 C         141.1731  143.7292  169.9710 C.3     1  UNL1        0.0871
     41 C         141.9588  142.5676  169.4387 C.2     1  UNL1        0.2260
     42 O         143.3489  142.6262  168.8782 O.2     1  UNL1       -0.2749
@<TRIPOS>BOND
     1    21    22    1
     2    22    19    1
     3    19    20    2
     4    19     1    1
     5     1     2   ar
     6     2     3   ar
     7     3     4   ar
     8     4     5   ar
     9     5     6   ar
    10     5     7    1
    11     7     8   am
    12     8     9    2
    13     8    10    1
    14    10    11    2
    15    11    23    1
    16    23    25    1
    17    25    26   ar
    18    26    27   ar
    19    27    28   ar
    20    28    29   ar
    21    29    30   ar
    22    29    31    1
    23    31    32   am
    24    32    33    2
    25    32    36    1
    26    36    37    1
    27    37    38    1
    28    38    39    1
    29    39    40    1
    30    40    41    1
    31    41    42    2
    32    31    34    1
    33    34    35    1
    34    11    13    1
    35    13    14   ar
    36    14    15   ar
    37    15    16   ar
    38    16    17   ar
    39    17    18   ar
    40     6     1   ar
    41    30    25   ar
    42    41    37   am
    43    18    13   ar
    44    10     4    1
    45    35    28    1
    46     7    12    1
    47    23    24    1
@<TRIPOS>MOLECULE
*****
 42 47 0 0 0
SMALL
GASTEIGER

@<TRIPOS>ATOM
      1 C         139.8768  145.7464  156.9925 C.ar    1  UNL1        0.0769
      2 C         140.4210  145.8867  158.3832 C.ar    1  UNL1        0.0065
      3 C         140.8213  144.6666  159.1586 C.ar    1  UNL1        0.0016
      4 C         140.6774  143.3063  158.5431 C.ar    1  UNL1        0.0191
      5 C         140.1333  143.1660  157.1524 C.ar    1  UNL1        0.0509
      6 C         139.7330  144.3861  156.3771 C.ar    1  UNL1        0.0211
      7 N         140.1059  141.7057  156.8104 N.am    1  UNL1       -0.2803
      8 C         140.6332  140.9435  157.9898 C.2     1  UNL1        0.2507
      9 O         140.7813  139.4537  158.0821 O.2     1  UNL1       -0.2698
     10 C         140.9864  141.9327  159.0607 C.2     1  UNL1        0.0682
     11 C         141.5497  141.6057  160.4119 C.2     1  UNL1        0.0527
     12 H         139.7963  141.3160  155.9610 H       1  UNL1        0.1552
     13 C         141.8550  142.7068  161.3837 C.ar    1  UNL1        0.0136
     14 C         140.7662  143.2644  162.2517 C.ar    1  UNL1        0.0012
     15 C         141.0716  144.3656  163.2235 C.ar    1  UNL1        0.0000
     16 C         142.4659  144.9090  163.3273 C.ar    1  UNL1        0.0000
     17 C         143.5547  144.3513  162.4593 C.ar    1  UNL1        0.0000
     18 C         143.2493  143.2503  161.4875 C.ar    1  UNL1        0.0012
     19 C         139.4765  146.9665  156.2172 C.2     1  UNL1        0.3414
     20 O         138.7602  148.0907  156.9050 O.2     1  UNL1       -0.2449
     21 C         140.0351  148.4026  154.1254 C.3     1  UNL1        0.2560
     22 O         139.7924  147.0624  154.7540 O.3     1  UNL1       -0.4413
     23 N         141.8077  140.1776  160.7914 N.pl3   1  UNL1       -0.3124
     24 H         141.6210  139.4560  160.1482 H       1  UNL1        0.1522
     25 C         142.3501  139.8491  162.1507 C.ar    1  UNL1        0.0495
     26 C         143.7784  139.4175  162.3041 C.ar    1  UNL1        0.0144
     27 C         144.3208  139.0889  163.6635 C.ar    1  UNL1       -0.0017
     28 C         143.4349  139.1919  164.8695 C.ar    1  UNL1       -0.0067
     29 C         142.0065  139.6235  164.7161 C.ar    1  UNL1        0.0512
     30 C         141.4641  139.9520  163.3567 C.ar    1  UNL1        0.0292
     31 N         141.3765  139.6330  166.0773 N.am    1  UNL1       -0.2572
     32 C         139.9567  140.0032  166.3891 C.2     1  UNL1        0.2496
     33 O         139.0279  140.4110  165.2841 O.2     1  UNL1       -0.2727
     34 C         142.4154  139.2073  167.0719 C.3     1  UNL1        0.1029
     35 C         143.6876  138.9347  166.3255 C.3     1  UNL1        0.0495
     36 C         139.4657  139.9655  167.8060 C.3     1  UNL1        0.1796
     37 N         139.9068  141.0166  168.7808 N.am    1  UNL1       -0.2713
     38 C         140.4038  142.3886  168.4333 C.3     1  UNL1        0.0944
     39 C         140.7326  143.1003  169.7120 C.3     1  UNL1        0.0311
     40 C         140.4389  142.1681  170.8500 C.3     1  UNL1        0.0871
     41 C         139.9286  140.8804  170.2745 C.2     1  UNL1        0.2260
     42 O         139.5130  139.6691  171.0555 O.2     1  UNL1       -0.2749
@<TRIPOS>BOND
     1    21    22    1
     2    22    19    1
     3    19    20    2
     4    19     1    1
     5     1     2   ar
     6     2     3   ar
     7     3     4   ar
     8     4     5   ar
     9     5     6   ar
    10     5     7    1
    11     7     8   am
    12     8     9    2
    13     8    10    1
    14    10    11    2
    15    11    23    1
    16    23    25    1
    17    25    26   ar
    18    26    27   ar
    19    27    28   ar
    20    28    29   ar
    21    29    30   ar
    22    29    31    1
    23    31    32   am
    24    32    33    2
    25    32    36    1
    26    36    37    1
    27    37    38    1
    28    38    39    1
    29    39    40    1
    30    40    41    1
    31    41    42    2
    32    31    34    1
    33    34    35    1
    34    11    13    1
    35    13    14   ar
    36    14    15   ar
    37    15    16   ar
    38    16    17   ar
    39    17    18   ar
    40     6     1   ar
    41    30    25   ar
    42    41    37   am
    43    18    13   ar
    44    10     4    1
    45    35    28    1
    46     7    12    1
    47    23    24    1
