@<TRIPOS>MOLECULE
*****
 30 34 0 0 0
SMALL
GASTEIGER

@<TRIPOS>ATOM
      1 C         139.9597  138.8006  162.0728 C.ar    1  UNL1        0.0839
      2 C         139.3244  137.6320  162.7661 C.ar    1  UNL1        0.0192
      3 C         139.0664  137.6856  164.2427 C.ar    1  UNL1        0.0030
      4 C         139.4437  138.9079  165.0261 C.ar    1  UNL1        0.0174
      5 C         139.1857  138.9615  166.5028 C.ar    1  UNL1       -0.0027
      6 C         139.5629  140.1837  167.2862 C.ar    1  UNL1       -0.0207
      7 C         140.1983  141.3524  166.5929 C.ar    1  UNL1       -0.0027
      8 C         140.4563  141.2988  165.1162 C.ar    1  UNL1        0.0188
      9 C         140.0790  140.0765  164.3328 C.ar    1  UNL1        0.0812
     10 N         140.3370  140.0229  162.8562 N.ar    1  UNL1       -0.2453
     11 C         142.7315  137.8394  160.6435 C.3     1  UNL1        0.0523
     12 C         141.4918  138.3052  159.9392 C.ar    1  UNL1        0.0655
     13 C         140.2177  138.7470  160.5961 C.ar    1  UNL1        0.0522
     14 C         139.2470  139.1258  159.5171 C.ar    1  UNL1        0.1232
     15 N         139.9212  138.9181  158.1933 N.ar    1  UNL1       -0.1624
     16 N         141.3086  138.4109  158.4542 N.ar    1  UNL1       -0.2161
     17 C         142.3328  138.0695  157.4129 C.ar    1  UNL1        0.1634
     18 C         142.6273  136.6338  157.0929 C.ar    1  UNL1        0.0388
     19 C         143.6515  136.2924  156.0516 C.ar    1  UNL1        0.0047
     20 C         144.3812  137.3865  155.3302 C.ar    1  UNL1        0.0208
     21 C         144.0867  138.8221  155.6502 C.ar    1  UNL1        0.1006
     22 N         143.0625  139.1636  156.6915 N.ar    1  UNL1       -0.2250
     23 C         139.3049  140.2374  168.7628 C.3     1  UNL1        0.0437
     24 C         140.4310  140.0185  169.7294 C.3     1  UNL1        0.0768
     25 N         141.5141  141.0473  169.8644 N.3     1  UNL1       -0.2737
     26 C         142.9871  140.8005  169.7241 C.3     1  UNL1        0.0721
     27 C         143.6978  142.1043  169.9364 C.3     1  UNL1        0.0187
     28 C         142.6641  143.1568  170.2080 C.3     1  UNL1        0.0174
     29 C         141.3146  142.5036  170.1635 C.3     1  UNL1        0.0576
     30 C         139.9969  143.1868  170.3800 C.3     1  UNL1        0.0173
@<TRIPOS>BOND
     1    11    12    1
     2    12    13   ar
     3    13     1    1
     4     1     2   ar
     5     2     3   ar
     6     3     4   ar
     7     4     5   ar
     8     5     6   ar
     9     6    23    1
    10    23    24    1
    11    24    25    1
    12    25    26    1
    13    26    27    1
    14    27    28    1
    15    28    29    1
    16    29    30    1
    17     6     7   ar
    18     7     8   ar
    19     8     9   ar
    20     9    10   ar
    21    13    14   ar
    22    14    15   ar
    23    15    16   ar
    24    16    17    1
    25    17    18   ar
    26    18    19   ar
    27    19    20   ar
    28    20    21   ar
    29    21    22   ar
    30    16    12   ar
    31    22    17   ar
    32    10     1   ar
    33     9     4   ar
    34    29    25    1
@<TRIPOS>MOLECULE
*****
 30 34 0 0 0
SMALL
GASTEIGER

@<TRIPOS>ATOM
      1 C         141.4455  143.7702  163.0184 C.ar    1  UNL1        0.0839
      2 C         142.7539  144.1189  163.6637 C.ar    1  UNL1        0.0192
      3 C         143.2455  143.3262  164.8384 C.ar    1  UNL1        0.0030
      4 C         142.4287  142.1847  165.3676 C.ar    1  UNL1        0.0174
      5 C         142.9204  141.3920  166.5423 C.ar    1  UNL1       -0.0027
      6 C         142.1037  140.2506  167.0716 C.ar    1  UNL1       -0.0207
      7 C         140.7952  139.9019  166.4261 C.ar    1  UNL1       -0.0027
      8 C         140.3036  140.6947  165.2515 C.ar    1  UNL1        0.0188
      9 C         141.1204  141.8361  164.7222 C.ar    1  UNL1        0.0812
     10 N         140.6288  142.6288  163.5476 N.ar    1  UNL1       -0.2453
     11 C         142.4558  143.4525  159.9316 C.3     1  UNL1        0.0523
     12 C         141.4182  144.4169  160.4248 C.ar    1  UNL1        0.0655
     13 C         140.9538  144.5630  161.8437 C.ar    1  UNL1        0.0522
     14 C         139.9115  145.6410  161.8815 C.ar    1  UNL1        0.1232
     15 N         139.7316  146.1611  160.4862 N.ar    1  UNL1       -0.1624
     16 N         140.6629  145.4046  159.5858 N.ar    1  UNL1       -0.2161
     17 C         140.8125  145.6013  158.1063 C.ar    1  UNL1        0.1634
     18 C         142.0690  145.1622  157.4146 C.ar    1  UNL1        0.0388
     19 C         142.2186  145.3588  155.9351 C.ar    1  UNL1        0.0047
     20 C         141.1117  145.9946  155.1474 C.ar    1  UNL1        0.0208
     21 C         139.8552  146.4337  155.8391 C.ar    1  UNL1        0.1006
     22 N         139.7056  146.2370  157.3186 N.ar    1  UNL1       -0.2250
     23 C         142.5953  139.4578  168.2462 C.3     1  UNL1        0.0437
     24 C         142.3995  139.9804  169.6386 C.3     1  UNL1        0.0768
     25 N         141.7023  141.2904  169.8569 N.3     1  UNL1       -0.2737
     26 C         142.3651  142.6276  170.0076 C.3     1  UNL1        0.0721
     27 C         141.2923  143.6569  170.2067 C.3     1  UNL1        0.0187
     28 C         139.9665  142.9558  170.1790 C.3     1  UNL1        0.0174
     29 C         140.2199  141.4933  169.9628 C.3     1  UNL1        0.0576
     30 C         139.1744  140.4218  169.8690 C.3     1  UNL1        0.0173
@<TRIPOS>BOND
     1    11    12    1
     2    12    13   ar
     3    13     1    1
     4     1     2   ar
     5     2     3   ar
     6     3     4   ar
     7     4     5   ar
     8     5     6   ar
     9     6    23    1
    10    23    24    1
    11    24    25    1
    12    25    26    1
    13    26    27    1
    14    27    28    1
    15    28    29    1
    16    29    30    1
    17     6     7   ar
    18     7     8   ar
    19     8     9   ar
    20     9    10   ar
    21    13    14   ar
    22    14    15   ar
    23    15    16   ar
    24    16    17    1
    25    17    18   ar
    26    18    19   ar
    27    19    20   ar
    28    20    21   ar
    29    21    22   ar
    30    16    12   ar
    31    22    17   ar
    32    10     1   ar
    33     9     4   ar
    34    29    25    1
@<TRIPOS>MOLECULE
*****
 30 34 0 0 0
SMALL
GASTEIGER

@<TRIPOS>ATOM
      1 C         141.4401  138.4096  159.5970 C.ar    1  UNL1        0.0839
      2 C         139.9546  138.5543  159.4476 C.ar    1  UNL1        0.0192
      3 C         139.0611  138.3876  160.6408 C.ar    1  UNL1        0.0030
      4 C         139.6530  138.0761  161.9834 C.ar    1  UNL1        0.0174
      5 C         138.7594  137.9094  163.1766 C.ar    1  UNL1       -0.0027
      6 C         139.3513  137.5980  164.5193 C.ar    1  UNL1       -0.0207
      7 C         140.8369  137.4533  164.6686 C.ar    1  UNL1       -0.0027
      8 C         141.7304  137.6200  163.4755 C.ar    1  UNL1        0.0188
      9 C         141.1385  137.9315  162.1328 C.ar    1  UNL1        0.0812
     10 N         142.0320  138.0982  160.9396 N.ar    1  UNL1       -0.2453
     11 C         142.7526  141.2117  158.5601 C.3     1  UNL1        0.0523
     12 C         142.9370  139.8643  157.9272 C.ar    1  UNL1        0.0655
     13 C         142.3337  138.5763  158.4038 C.ar    1  UNL1        0.0522
     14 C         142.7809  137.4844  157.4777 C.ar    1  UNL1        0.1232
     15 N         143.6606  138.0975  156.4288 N.ar    1  UNL1       -0.1624
     16 N         143.7570  139.5684  156.7066 N.ar    1  UNL1       -0.2161
     17 C         144.5367  140.5679  155.9046 C.ar    1  UNL1        0.1634
     18 C         145.8007  141.1536  156.4606 C.ar    1  UNL1        0.0388
     19 C         146.5804  142.1531  155.6585 C.ar    1  UNL1        0.0047
     20 C         146.0959  142.5668  154.3006 C.ar    1  UNL1        0.0208
     21 C         144.8319  141.9810  153.7446 C.ar    1  UNL1        0.1006
     22 N         144.0522  140.9816  154.5466 N.ar    1  UNL1       -0.2250
     23 C         138.4578  137.4313  165.7124 C.3     1  UNL1        0.0437
     24 C         138.0158  138.6340  166.4924 C.3     1  UNL1        0.0768
     25 N         138.9345  139.8102  166.6417 N.3     1  UNL1       -0.2737
     26 C         139.9319  140.0158  167.7430 C.3     1  UNL1        0.0721
     27 C         140.6310  141.3200  167.4979 C.3     1  UNL1        0.0187
     28 C         140.0656  141.9206  166.2450 C.3     1  UNL1        0.0174
     29 C         139.0171  140.9875  165.7158 C.3     1  UNL1        0.0576
     30 C         138.1956  141.1952  164.4781 C.3     1  UNL1        0.0173
@<TRIPOS>BOND
     1    11    12    1
     2    12    13   ar
     3    13     1    1
     4     1     2   ar
     5     2     3   ar
     6     3     4   ar
     7     4     5   ar
     8     5     6   ar
     9     6    23    1
    10    23    24    1
    11    24    25    1
    12    25    26    1
    13    26    27    1
    14    27    28    1
    15    28    29    1
    16    29    30    1
    17     6     7   ar
    18     7     8   ar
    19     8     9   ar
    20     9    10   ar
    21    13    14   ar
    22    14    15   ar
    23    15    16   ar
    24    16    17    1
    25    17    18   ar
    26    18    19   ar
    27    19    20   ar
    28    20    21   ar
    29    21    22   ar
    30    16    12   ar
    31    22    17   ar
    32    10     1   ar
    33     9     4   ar
    34    29    25    1
@<TRIPOS>MOLECULE
*****
 30 34 0 0 0
SMALL
GASTEIGER

@<TRIPOS>ATOM
      1 C         139.4890  138.9239  163.6502 C.ar    1  UNL1        0.0839
      2 C         138.3713  139.1648  162.6793 C.ar    1  UNL1        0.0192
      3 C         138.6076  138.9988  161.2074 C.ar    1  UNL1        0.0030
      4 C         139.9617  138.5920  160.7064 C.ar    1  UNL1        0.0174
      5 C         140.1981  138.4261  159.2344 C.ar    1  UNL1       -0.0027
      6 C         141.5522  138.0193  158.7334 C.ar    1  UNL1       -0.0207
      7 C         142.6699  137.7784  159.7044 C.ar    1  UNL1       -0.0027
      8 C         142.4335  137.9444  161.1763 C.ar    1  UNL1        0.0188
      9 C         141.0794  138.3512  161.6773 C.ar    1  UNL1        0.0812
     10 N         140.8430  138.5171  163.1492 N.ar    1  UNL1       -0.2453
     11 C         141.1921  140.8484  165.6614 C.3     1  UNL1        0.0523
     12 C         140.0355  139.9745  166.0466 C.ar    1  UNL1        0.0655
     13 C         139.2526  139.0899  165.1222 C.ar    1  UNL1        0.0522
     14 C         138.1919  138.4004  165.9281 C.ar    1  UNL1        0.1232
     15 N         138.3192  138.8589  167.3506 N.ar    1  UNL1       -0.1624
     16 N         139.4587  139.8317  167.4239 N.ar    1  UNL1       -0.2161
     17 C         139.9372  140.5378  168.6577 C.ar    1  UNL1        0.1634
     18 C         140.1219  142.0264  168.6461 C.ar    1  UNL1        0.0388
     19 C         140.6004  142.7325  169.8799 C.ar    1  UNL1        0.0047
     20 C         140.8943  141.9500  171.1255 C.ar    1  UNL1        0.0208
     21 C         140.7096  140.4614  171.1371 C.ar    1  UNL1        0.1006
     22 N         140.2311  139.7553  169.9033 N.ar    1  UNL1       -0.2250
     23 C         141.7885  137.8533  157.2615 C.3     1  UNL1        0.0437
     24 C         142.9353  137.0173  156.7756 C.3     1  UNL1        0.0768
     25 N         142.7839  135.5292  156.6632 N.3     1  UNL1       -0.2737
     26 C         143.4826  134.5055  157.5081 C.3     1  UNL1        0.0721
     27 C         143.0377  133.1472  157.0533 C.3     1  UNL1        0.0187
     28 C         142.0639  133.3314  155.9272 C.3     1  UNL1        0.0174
     29 C         141.9071  134.8035  155.6861 C.3     1  UNL1        0.0576
     30 C         141.0279  135.4385  154.6499 C.3     1  UNL1        0.0173
@<TRIPOS>BOND
     1    11    12    1
     2    12    13   ar
     3    13     1    1
     4     1     2   ar
     5     2     3   ar
     6     3     4   ar
     7     4     5   ar
     8     5     6   ar
     9     6    23    1
    10    23    24    1
    11    24    25    1
    12    25    26    1
    13    26    27    1
    14    27    28    1
    15    28    29    1
    16    29    30    1
    17     6     7   ar
    18     7     8   ar
    19     8     9   ar
    20     9    10   ar
    21    13    14   ar
    22    14    15   ar
    23    15    16   ar
    24    16    17    1
    25    17    18   ar
    26    18    19   ar
    27    19    20   ar
    28    20    21   ar
    29    21    22   ar
    30    16    12   ar
    31    22    17   ar
    32    10     1   ar
    33     9     4   ar
    34    29    25    1
@<TRIPOS>MOLECULE
*****
 30 34 0 0 0
SMALL
GASTEIGER

@<TRIPOS>ATOM
      1 C         139.8394  138.9883  162.1271 C.ar    1  UNL1        0.0839
      2 C         139.1785  137.8060  162.7715 C.ar    1  UNL1        0.0192
      3 C         138.9252  137.8019  164.2499 C.ar    1  UNL1        0.0030
      4 C         139.3327  138.9802  165.0839 C.ar    1  UNL1        0.0174
      5 C         139.0794  138.9761  166.5624 C.ar    1  UNL1       -0.0027
      6 C         139.4869  140.1543  167.3965 C.ar    1  UNL1       -0.0207
      7 C         140.1478  141.3367  166.7520 C.ar    1  UNL1       -0.0027
      8 C         140.4011  141.3408  165.2736 C.ar    1  UNL1        0.0188
      9 C         139.9936  140.1625  164.4396 C.ar    1  UNL1        0.0812
     10 N         140.2469  140.1666  162.9612 N.ar    1  UNL1       -0.2453
     11 C         137.7680  140.0260  159.8289 C.3     1  UNL1        0.0523
     12 C         139.1406  139.4695  159.5922 C.ar    1  UNL1        0.0655
     13 C         140.0928  138.9925  160.6486 C.ar    1  UNL1        0.0522
     14 C         141.3427  138.5204  159.9670 C.ar    1  UNL1        0.1232
     15 N         141.1631  138.7056  158.4893 N.ar    1  UNL1       -0.1624
     16 N         139.8021  139.2922  158.2577 N.ar    1  UNL1       -0.2161
     17 C         139.2071  139.6403  156.9255 C.ar    1  UNL1        0.1634
     18 C         139.2690  141.0520  156.4223 C.ar    1  UNL1        0.0388
     19 C         138.6740  141.4001  155.0901 C.ar    1  UNL1        0.0047
     20 C         138.0171  140.3365  154.2612 C.ar    1  UNL1        0.0208
     21 C         137.9551  138.9248  154.7644 C.ar    1  UNL1        0.1006
     22 N         138.5501  138.5767  156.0966 N.ar    1  UNL1       -0.2250
     23 C         139.2335  140.1502  168.8749 C.3     1  UNL1        0.0437
     24 C         140.3770  139.9831  169.8313 C.3     1  UNL1        0.0768
     25 N         141.4617  141.0173  169.8916 N.3     1  UNL1       -0.2737
     26 C         142.9267  140.7718  169.6828 C.3     1  UNL1        0.0721
     27 C         143.6423  142.0815  169.8333 C.3     1  UNL1        0.0187
     28 C         142.6195  143.1364  170.1352 C.3     1  UNL1        0.0174
     29 C         141.2719  142.4788  170.1712 C.3     1  UNL1        0.0576
     30 C         139.9641  143.1625  170.4396 C.3     1  UNL1        0.0173
@<TRIPOS>BOND
     1    11    12    1
     2    12    13   ar
     3    13     1    1
     4     1     2   ar
     5     2     3   ar
     6     3     4   ar
     7     4     5   ar
     8     5     6   ar
     9     6    23    1
    10    23    24    1
    11    24    25    1
    12    25    26    1
    13    26    27    1
    14    27    28    1
    15    28    29    1
    16    29    30    1
    17     6     7   ar
    18     7     8   ar
    19     8     9   ar
    20     9    10   ar
    21    13    14   ar
    22    14    15   ar
    23    15    16   ar
    24    16    17    1
    25    17    18   ar
    26    18    19   ar
    27    19    20   ar
    28    20    21   ar
    29    21    22   ar
    30    16    12   ar
    31    22    17   ar
    32    10     1   ar
    33     9     4   ar
    34    29    25    1
@<TRIPOS>MOLECULE
*****
 30 34 0 0 0
SMALL
GASTEIGER

@<TRIPOS>ATOM
      1 C         142.2111  138.2442  159.9501 C.ar    1  UNL1        0.0839
      2 C         143.4350  139.0654  160.2285 C.ar    1  UNL1        0.0192
      3 C         143.8688  139.3089  161.6436 C.ar    1  UNL1        0.0030
      4 C         143.0786  138.7312  162.7802 C.ar    1  UNL1        0.0174
      5 C         143.5124  138.9748  164.1954 C.ar    1  UNL1       -0.0027
      6 C         142.7223  138.3971  165.3320 C.ar    1  UNL1       -0.0207
      7 C         141.4983  137.5758  165.0535 C.ar    1  UNL1       -0.0027
      8 C         141.0646  137.3323  163.6384 C.ar    1  UNL1        0.0188
      9 C         141.8547  137.9100  162.5018 C.ar    1  UNL1        0.0812
     10 N         141.4209  137.6665  161.0867 N.ar    1  UNL1       -0.2453
     11 C         139.4221  139.2635  158.5964 C.3     1  UNL1        0.0523
     12 C         140.4953  138.4692  157.9127 C.ar    1  UNL1        0.0655
     13 C         141.7773  138.0007  158.5349 C.ar    1  UNL1        0.0522
     14 C         142.5492  137.2459  157.4936 C.ar    1  UNL1        0.1232
     15 N         141.7444  137.2479  156.2278 N.ar    1  UNL1       -0.1624
     16 N         140.4749  138.0040  156.4869 N.ar    1  UNL1       -0.2161
     17 C         139.3779  138.2513  155.4943 C.ar    1  UNL1        0.1634
     18 C         139.3773  139.5076  154.6746 C.ar    1  UNL1        0.0388
     19 C         138.2802  139.7549  153.6820 C.ar    1  UNL1        0.0047
     20 C         137.1837  138.7461  153.5092 C.ar    1  UNL1        0.0208
     21 C         137.1843  137.4898  154.3289 C.ar    1  UNL1        0.1006
     22 N         138.2814  137.2425  155.3215 N.ar    1  UNL1       -0.2250
     23 C         143.1561  138.6406  166.7471 C.3     1  UNL1        0.0437
     24 C         142.8050  139.9304  167.4278 C.3     1  UNL1        0.0768
     25 N         141.6326  139.9908  168.3614 N.3     1  UNL1       -0.2737
     26 C         141.6825  139.8246  169.8514 C.3     1  UNL1        0.0721
     27 C         140.2852  139.9592  170.3799 C.3     1  UNL1        0.0187
     28 C         139.3717  140.2085  169.2165 C.3     1  UNL1        0.0174
     29 C         140.2044  140.2281  167.9691 C.3     1  UNL1        0.0576
     30 C         139.6979  140.4466  166.5742 C.3     1  UNL1        0.0173
@<TRIPOS>BOND
     1    11    12    1
     2    12    13   ar
     3    13     1    1
     4     1     2   ar
     5     2     3   ar
     6     3     4   ar
     7     4     5   ar
     8     5     6   ar
     9     6    23    1
    10    23    24    1
    11    24    25    1
    12    25    26    1
    13    26    27    1
    14    27    28    1
    15    28    29    1
    16    29    30    1
    17     6     7   ar
    18     7     8   ar
    19     8     9   ar
    20     9    10   ar
    21    13    14   ar
    22    14    15   ar
    23    15    16   ar
    24    16    17    1
    25    17    18   ar
    26    18    19   ar
    27    19    20   ar
    28    20    21   ar
    29    21    22   ar
    30    16    12   ar
    31    22    17   ar
    32    10     1   ar
    33     9     4   ar
    34    29    25    1
@<TRIPOS>MOLECULE
*****
 30 34 0 0 0
SMALL
GASTEIGER

@<TRIPOS>ATOM
      1 C         142.3969  138.1758  158.0644 C.ar    1  UNL1        0.0839
      2 C         142.8972  139.5348  157.6735 C.ar    1  UNL1        0.0192
      3 C         143.5656  140.4095  158.6923 C.ar    1  UNL1        0.0030
      4 C         143.7338  139.9252  160.1020 C.ar    1  UNL1        0.0174
      5 C         144.4023  140.8000  161.1208 C.ar    1  UNL1       -0.0027
      6 C         144.5705  140.3158  162.5305 C.ar    1  UNL1       -0.0207
      7 C         144.0702  138.9567  162.9214 C.ar    1  UNL1       -0.0027
      8 C         143.4017  138.0820  161.9026 C.ar    1  UNL1        0.0188
      9 C         143.2335  138.5663  160.4929 C.ar    1  UNL1        0.0812
     10 N         142.5651  137.6915  159.4741 N.ar    1  UNL1       -0.2453
     11 C         143.5742  135.3754  156.8723 C.3     1  UNL1        0.0523
     12 C         142.2696  136.0138  156.4977 C.ar    1  UNL1        0.0655
     13 C         141.7284  137.3010  157.0456 C.ar    1  UNL1        0.0522
     14 C         140.4014  137.5598  156.3959 C.ar    1  UNL1        0.1232
     15 N         140.1224  136.4326  155.4465 N.ar    1  UNL1       -0.1624
     16 N         141.2771  135.4771  155.5093 N.ar    1  UNL1       -0.2161
     17 C         141.4149  134.2077  154.7221 C.ar    1  UNL1        0.1634
     18 C         141.7775  134.2629  153.2676 C.ar    1  UNL1        0.0388
     19 C         141.9154  132.9935  152.4804 C.ar    1  UNL1        0.0047
     20 C         141.6906  131.6691  153.1476 C.ar    1  UNL1        0.0208
     21 C         141.3280  131.6139  154.6021 C.ar    1  UNL1        0.1006
     22 N         141.1901  132.8832  155.3893 N.ar    1  UNL1       -0.2250
     23 C         145.2390  141.1905  163.5493 C.3     1  UNL1        0.0437
     24 C         144.4203  141.8724  164.6052 C.3     1  UNL1        0.0768
     25 N         143.5143  143.0088  164.2344 N.3     1  UNL1       -0.2737
     26 C         143.8751  144.4647  164.2480 C.3     1  UNL1        0.0721
     27 C         142.6721  145.2446  163.8068 C.3     1  UNL1        0.0187
     28 C         141.5678  144.2706  163.5205 C.3     1  UNL1        0.0174
     29 C         142.0883  142.8888  163.7848 C.3     1  UNL1        0.0576
     30 C         141.3180  141.6114  163.6271 C.3     1  UNL1        0.0173
@<TRIPOS>BOND
     1    11    12    1
     2    12    13   ar
     3    13     1    1
     4     1     2   ar
     5     2     3   ar
     6     3     4   ar
     7     4     5   ar
     8     5     6   ar
     9     6    23    1
    10    23    24    1
    11    24    25    1
    12    25    26    1
    13    26    27    1
    14    27    28    1
    15    28    29    1
    16    29    30    1
    17     6     7   ar
    18     7     8   ar
    19     8     9   ar
    20     9    10   ar
    21    13    14   ar
    22    14    15   ar
    23    15    16   ar
    24    16    17    1
    25    17    18   ar
    26    18    19   ar
    27    19    20   ar
    28    20    21   ar
    29    21    22   ar
    30    16    12   ar
    31    22    17   ar
    32    10     1   ar
    33     9     4   ar
    34    29    25    1
@<TRIPOS>MOLECULE
*****
 30 34 0 0 0
SMALL
GASTEIGER

@<TRIPOS>ATOM
      1 C         138.6534  139.5768  164.0242 C.ar    1  UNL1        0.0839
      2 C         138.6479  138.3018  163.2341 C.ar    1  UNL1        0.0192
      3 C         138.5258  138.3461  161.7397 C.ar    1  UNL1        0.0030
      4 C         138.4091  139.6654  161.0355 C.ar    1  UNL1        0.0174
      5 C         138.2870  139.7096  159.5411 C.ar    1  UNL1       -0.0027
      6 C         138.1703  141.0289  158.8369 C.ar    1  UNL1       -0.0207
      7 C         138.1759  142.3039  159.6271 C.ar    1  UNL1       -0.0027
      8 C         138.2980  142.2596  161.1214 C.ar    1  UNL1        0.0188
      9 C         138.4146  140.9404  161.8257 C.ar    1  UNL1        0.0812
     10 N         138.5368  140.8961  163.3200 N.ar    1  UNL1       -0.2453
     11 C         140.9642  141.0404  165.8041 C.3     1  UNL1        0.0523
     12 C         139.8377  140.2053  166.3367 C.ar    1  UNL1        0.0655
     13 C         138.7756  139.5325  165.5186 C.ar    1  UNL1        0.0522
     14 C         137.8571  138.8078  166.4572 C.ar    1  UNL1        0.1232
     15 N         138.3515  139.0326  167.8554 N.ar    1  UNL1       -0.1624
     16 N         139.5757  139.8964  167.7809 N.ar    1  UNL1       -0.2161
     17 C         140.3940  140.3682  168.9461 C.ar    1  UNL1        0.1634
     18 C         141.7255  139.7391  169.2312 C.ar    1  UNL1        0.0388
     19 C         142.5439  140.2110  170.3964 C.ar    1  UNL1        0.0047
     20 C         142.0307  141.3120  171.2764 C.ar    1  UNL1        0.0208
     21 C         140.6992  141.9411  170.9912 C.ar    1  UNL1        0.1006
     22 N         139.8809  141.4693  169.8261 N.ar    1  UNL1       -0.2250
     23 C         138.0482  141.0732  157.3426 C.3     1  UNL1        0.0437
     24 C         137.2714  142.1757  156.6859 C.3     1  UNL1        0.0768
     25 N         136.5369  141.9152  155.4042 N.3     1  UNL1       -0.2737
     26 C         136.9209  142.4283  154.0480 C.3     1  UNL1        0.0721
     27 C         135.9108  141.9261  153.0593 C.3     1  UNL1        0.0187
     28 C         134.9025  141.1026  153.8045 C.3     1  UNL1        0.0174
     29 C         135.2895  141.0959  155.2537 C.3     1  UNL1        0.0576
     30 C         134.5575  140.3932  156.3585 C.3     1  UNL1        0.0173
@<TRIPOS>BOND
     1    11    12    1
     2    12    13   ar
     3    13     1    1
     4     1     2   ar
     5     2     3   ar
     6     3     4   ar
     7     4     5   ar
     8     5     6   ar
     9     6    23    1
    10    23    24    1
    11    24    25    1
    12    25    26    1
    13    26    27    1
    14    27    28    1
    15    28    29    1
    16    29    30    1
    17     6     7   ar
    18     7     8   ar
    19     8     9   ar
    20     9    10   ar
    21    13    14   ar
    22    14    15   ar
    23    15    16   ar
    24    16    17    1
    25    17    18   ar
    26    18    19   ar
    27    19    20   ar
    28    20    21   ar
    29    21    22   ar
    30    16    12   ar
    31    22    17   ar
    32    10     1   ar
    33     9     4   ar
    34    29    25    1
@<TRIPOS>MOLECULE
*****
 30 34 0 0 0
SMALL
GASTEIGER

@<TRIPOS>ATOM
      1 C         142.6761  138.7498  159.5716 C.ar    1  UNL1        0.0839
      2 C         143.5725  138.4719  160.7417 C.ar    1  UNL1        0.0192
      3 C         142.9791  138.1493  162.0810 C.ar    1  UNL1        0.0030
      4 C         141.4893  138.1046  162.2502 C.ar    1  UNL1        0.0174
      5 C         140.8960  137.7820  163.5896 C.ar    1  UNL1       -0.0027
      6 C         139.4062  137.7373  163.7588 C.ar    1  UNL1       -0.0207
      7 C         138.5098  138.0153  162.5886 C.ar    1  UNL1       -0.0027
      8 C         139.1032  138.3379  161.2493 C.ar    1  UNL1        0.0188
      9 C         140.5929  138.3826  161.0801 C.ar    1  UNL1        0.0812
     10 N         141.1863  138.7052  159.7408 N.ar    1  UNL1       -0.2453
     11 C         144.1301  141.5512  158.7422 C.3     1  UNL1        0.0523
     12 C         143.9378  140.3601  157.8510 C.ar    1  UNL1        0.0655
     13 C         143.2694  139.0725  158.2322 C.ar    1  UNL1        0.0522
     14 C         143.2985  138.1641  157.0388 C.ar    1  UNL1        0.1232
     15 N         143.9849  138.8903  155.9202 N.ar    1  UNL1       -0.1624
     16 N         144.3800  140.2476  156.4221 N.ar    1  UNL1       -0.2161
     17 C         145.0922  141.3063  155.6336 C.ar    1  UNL1        0.1634
     18 C         146.5839  141.4344  155.7262 C.ar    1  UNL1        0.0388
     19 C         147.2961  142.4932  154.9377 C.ar    1  UNL1        0.0047
     20 C         146.5166  143.4238  154.0566 C.ar    1  UNL1        0.0208
     21 C         145.0250  143.2957  153.9640 C.ar    1  UNL1        0.1006
     22 N         144.3128  142.2370  154.7525 N.ar    1  UNL1       -0.2250
     23 C         138.8129  137.4147  165.0981 C.3     1  UNL1        0.0437
     24 C         138.4022  138.5221  166.0229 C.3     1  UNL1        0.0768
     25 N         138.8934  139.9192  165.7847 N.3     1  UNL1       -0.2737
     26 C         138.2105  140.9642  164.9531 C.3     1  UNL1        0.0721
     27 C         139.0489  142.2074  164.9907 C.3     1  UNL1        0.0187
     28 C         140.2500  141.9308  165.8456 C.3     1  UNL1        0.0174
     29 C         140.1539  140.5166  166.3363 C.3     1  UNL1        0.0576
     30 C         141.1445  139.8218  167.2229 C.3     1  UNL1        0.0173
@<TRIPOS>BOND
     1    11    12    1
     2    12    13   ar
     3    13     1    1
     4     1     2   ar
     5     2     3   ar
     6     3     4   ar
     7     4     5   ar
     8     5     6   ar
     9     6    23    1
    10    23    24    1
    11    24    25    1
    12    25    26    1
    13    26    27    1
    14    27    28    1
    15    28    29    1
    16    29    30    1
    17     6     7   ar
    18     7     8   ar
    19     8     9   ar
    20     9    10   ar
    21    13    14   ar
    22    14    15   ar
    23    15    16   ar
    24    16    17    1
    25    17    18   ar
    26    18    19   ar
    27    19    20   ar
    28    20    21   ar
    29    21    22   ar
    30    16    12   ar
    31    22    17   ar
    32    10     1   ar
    33     9     4   ar
    34    29    25    1
