@<TRIPOS>MOLECULE
*****
 32 34 0 0 0
SMALL
GASTEIGER

@<TRIPOS>ATOM
      1 C         141.8380  140.9143  167.3047 C.ar    1  UNL1        0.0764
      2 C         140.6558  140.4131  166.5294 C.ar    1  UNL1        0.0522
      3 C         139.4732  139.8396  167.2525 C.ar    1  UNL1        0.1515
      4 N         139.4729  139.7674  168.7507 N.ar    1  UNL1       -0.1329
      5 N         140.6552  140.2686  169.5260 N.ar    1  UNL1       -0.1409
      6 C         141.8377  140.8420  168.8030 C.ar    1  UNL1        0.1691
      7 C         143.0199  141.3433  169.5783 C.2     1  UNL1        0.2635
      8 N         143.5945  140.5147  170.6889 N.am    1  UNL1       -0.3240
      9 O         143.6276  142.6731  169.2430 O.2     1  UNL1       -0.2686
     10 H         143.1957  139.6419  170.9089 H       1  UNL1        0.1453
     11 H         144.3705  140.8437  171.1977 H       1  UNL1        0.1453
     12 N         143.0206  141.4877  166.5818 N.pl3   1  UNL1       -0.2965
     13 H         143.9142  141.0953  166.7110 H       1  UNL1        0.1537
     14 C         141.2836  144.3107  164.3992 C.ar    1  UNL1        0.0604
     15 C         142.4836  145.0016  163.8224 C.ar    1  UNL1        0.0148
     16 C         143.8626  144.5212  164.1654 C.ar    1  UNL1        0.0041
     17 C         144.0416  143.3500  165.0852 C.ar    1  UNL1        0.0344
     18 C         142.8416  142.6591  165.6620 C.ar    1  UNL1        0.1318
     19 N         141.4626  143.1395  165.3190 N.ar    1  UNL1       -0.2349
     20 C         138.8354  144.8146  165.1079 C.3     1  UNL1        0.0067
     21 C         139.9047  144.7911  164.0562 C.3     1  UNL1        0.0459
     22 N         138.2910  139.3384  166.4772 N.pl3   1  UNL1       -0.3170
     23 H         137.4368  139.1693  166.9366 H       1  UNL1        0.1482
     24 C         138.4102  139.0946  165.0019 C.3     1  UNL1        0.0845
     25 C         138.9421  137.7856  164.4985 C.3     1  UNL1        0.0209
     26 C         139.0614  137.5419  163.0232 C.3     1  UNL1        0.0018
     27 C         138.6486  138.6073  162.0513 C.3     1  UNL1        0.0015
     28 C         138.1166  139.9164  162.5547 C.3     1  UNL1        0.0172
     29 C         137.9974  140.1600  164.0300 C.3     1  UNL1        0.0689
     30 N         137.4654  141.4691  164.5334 N.3     1  UNL1       -0.3209
     31 H         137.4535  141.4617  165.5533 H       1  UNL1        0.1189
     32 H         136.5175  141.6081  164.1833 H       1  UNL1        0.1189
@<TRIPOS>BOND
     1    20    21    1
     2    21    14    1
     3    14    15   ar
     4    15    16   ar
     5    16    17   ar
     6    17    18   ar
     7    18    12    1
     8    12     1    1
     9     1     2   ar
    10     2     3   ar
    11     3    22    1
    12    24    22    1
    13    24    25    1
    14    25    26    1
    15    26    27    1
    16    27    28    1
    17    28    29    1
    18    29    30    1
    19     3     4   ar
    20     4     5   ar
    21     5     6   ar
    22     6     7    1
    23     7     8   am
    24     7     9    2
    25    18    19   ar
    26    19    14   ar
    27     6     1   ar
    28    29    24    1
    29    12    13    1
    30    22    23    1
    31    30    31    1
    32    30    32    1
    33     8    10    1
    34     8    11    1
@<TRIPOS>MOLECULE
*****
 32 34 0 0 0
SMALL
GASTEIGER

@<TRIPOS>ATOM
      1 C         140.8467  140.5051  168.6509 C.ar    1  UNL1        0.0764
      2 C         140.0313  139.9834  167.5050 C.ar    1  UNL1        0.0522
      3 C         138.6409  139.4739  167.7446 C.ar    1  UNL1        0.1515
      4 N         138.0660  139.4861  169.1300 N.ar    1  UNL1       -0.1329
      5 N         138.8814  140.0077  170.2759 N.ar    1  UNL1       -0.1409
      6 C         140.2717  140.5172  170.0363 C.ar    1  UNL1        0.1691
      7 C         141.0871  141.0389  171.1822 C.2     1  UNL1        0.2635
      8 N         142.3841  140.3770  171.5424 N.am    1  UNL1       -0.3240
      9 O         140.6055  142.2225  171.9678 O.2     1  UNL1       -0.2686
     10 H         142.7001  139.6002  171.0267 H       1  UNL1        0.1453
     11 H         142.9192  140.7194  172.2944 H       1  UNL1        0.1453
     12 N         142.2370  141.0146  168.4114 N.pl3   1  UNL1       -0.2965
     13 H         142.7133  141.4989  169.1239 H       1  UNL1        0.1537
     14 C         143.9569  141.7272  164.9065 C.ar    1  UNL1        0.0604
     15 C         144.2306  140.3295  164.4357 C.ar    1  UNL1        0.0148
     16 C         143.8398  139.1603  165.2901 C.ar    1  UNL1        0.0041
     17 C         143.1752  139.3886  166.6153 C.ar    1  UNL1        0.0344
     18 C         142.9015  140.7862  167.0861 C.ar    1  UNL1        0.1318
     19 N         143.2924  141.9555  166.2317 N.ar    1  UNL1       -0.2349
     20 C         144.0404  144.2928  164.5057 C.3     1  UNL1        0.0067
     21 C         144.3478  142.8965  164.0521 C.3     1  UNL1        0.0459
     22 N         137.8255  138.9522  166.5988 N.pl3   1  UNL1       -0.3170
     23 H         136.8828  138.7048  166.7379 H       1  UNL1        0.1482
     24 C         138.4464  138.8075  165.2410 C.3     1  UNL1        0.0845
     25 C         139.2235  137.5708  164.8996 C.3     1  UNL1        0.0209
     26 C         139.8445  137.4260  163.5418 C.3     1  UNL1        0.0018
     27 C         139.6883  138.5181  162.5255 C.3     1  UNL1        0.0015
     28 C         138.9111  139.7549  162.8669 C.3     1  UNL1        0.0172
     29 C         138.2902  139.8995  164.2246 C.3     1  UNL1        0.0689
     30 N         137.5131  141.1363  164.5660 N.3     1  UNL1       -0.3209
     31 H         137.1649  141.0660  165.5222 H       1  UNL1        0.1189
     32 H         136.7264  141.2316  163.9239 H       1  UNL1        0.1189
@<TRIPOS>BOND
     1    20    21    1
     2    21    14    1
     3    14    15   ar
     4    15    16   ar
     5    16    17   ar
     6    17    18   ar
     7    18    12    1
     8    12     1    1
     9     1     2   ar
    10     2     3   ar
    11     3    22    1
    12    24    22    1
    13    24    25    1
    14    25    26    1
    15    26    27    1
    16    27    28    1
    17    28    29    1
    18    29    30    1
    19     3     4   ar
    20     4     5   ar
    21     5     6   ar
    22     6     7    1
    23     7     8   am
    24     7     9    2
    25    18    19   ar
    26    19    14   ar
    27     6     1   ar
    28    29    24    1
    29    12    13    1
    30    22    23    1
    31    30    31    1
    32    30    32    1
    33     8    10    1
    34     8    11    1
@<TRIPOS>MOLECULE
*****
 32 34 0 0 0
SMALL
GASTEIGER

@<TRIPOS>ATOM
      1 C         140.3523  139.8769  166.9312 C.ar    1  UNL1        0.0764
      2 C         140.1440  139.1048  165.6621 C.ar    1  UNL1        0.0522
      3 C         138.9095  138.2712  165.4853 C.ar    1  UNL1        0.1515
      4 N         137.8833  138.2097  166.5776 N.ar    1  UNL1       -0.1329
      5 N         138.0916  138.9817  167.8467 N.ar    1  UNL1       -0.1409
      6 C         139.3260  139.8153  168.0235 C.ar    1  UNL1        0.1691
      7 C         139.5343  140.5873  169.2926 C.2     1  UNL1        0.2635
      8 N         139.2968  139.9283  170.6189 N.am    1  UNL1       -0.3240
      9 O         139.9801  142.0184  169.2353 O.2     1  UNL1       -0.2686
     10 H         139.0042  138.9890  170.6565 H       1  UNL1        0.1453
     11 H         139.4335  140.4350  171.4519 H       1  UNL1        0.1453
     12 N         141.5867  140.7104  167.1079 N.pl3   1  UNL1       -0.2965
     13 H         142.2083  140.5190  167.8470 H       1  UNL1        0.1537
     14 C         141.0479  143.8507  164.7418 C.ar    1  UNL1        0.0604
     15 C         142.4488  144.0864  164.2602 C.ar    1  UNL1        0.0148
     16 C         143.5623  143.1967  164.7278 C.ar    1  UNL1        0.0041
     17 C         143.2749  142.0714  165.6770 C.ar    1  UNL1        0.0344
     18 C         141.8741  141.8358  166.1587 C.ar    1  UNL1        0.1318
     19 N         140.7606  142.7254  165.6911 N.ar    1  UNL1       -0.2349
     20 C         138.6979  144.8959  165.1089 C.3     1  UNL1        0.0067
     21 C         139.9344  144.7404  164.2743 C.3     1  UNL1        0.0459
     22 N         138.7012  137.4992  164.2162 N.pl3   1  UNL1       -0.3170
     23 H         138.3733  136.5716  164.2525 H       1  UNL1        0.1482
     24 C         138.9926  138.1405  162.8918 C.3     1  UNL1        0.0845
     25 C         137.9894  139.0658  162.2696 C.3     1  UNL1        0.0209
     26 C         138.2808  139.7071  160.9453 C.3     1  UNL1        0.0018
     27 C         139.5755  139.4230  160.2431 C.3     1  UNL1        0.0015
     28 C         140.5788  138.4976  160.8654 C.3     1  UNL1        0.0172
     29 C         140.2873  137.8564  162.1897 C.3     1  UNL1        0.0689
     30 N         141.2906  136.9309  162.8119 N.3     1  UNL1       -0.3209
     31 H         140.9309  136.5890  163.7030 H       1  UNL1        0.1189
     32 H         142.1648  137.4327  162.9681 H       1  UNL1        0.1189
@<TRIPOS>BOND
     1    20    21    1
     2    21    14    1
     3    14    15   ar
     4    15    16   ar
     5    16    17   ar
     6    17    18   ar
     7    18    12    1
     8    12     1    1
     9     1     2   ar
    10     2     3   ar
    11     3    22    1
    12    24    22    1
    13    24    25    1
    14    25    26    1
    15    26    27    1
    16    27    28    1
    17    28    29    1
    18    29    30    1
    19     3     4   ar
    20     4     5   ar
    21     5     6   ar
    22     6     7    1
    23     7     8   am
    24     7     9    2
    25    18    19   ar
    26    19    14   ar
    27     6     1   ar
    28    29    24    1
    29    12    13    1
    30    22    23    1
    31    30    31    1
    32    30    32    1
    33     8    10    1
    34     8    11    1
@<TRIPOS>MOLECULE
*****
 32 34 0 0 0
SMALL
GASTEIGER

@<TRIPOS>ATOM
      1 C         141.0688  140.4987  168.5943 C.ar    1  UNL1        0.0764
      2 C         140.1893  140.0093  167.4820 C.ar    1  UNL1        0.0522
      3 C         138.7960  139.5395  167.7790 C.ar    1  UNL1        0.1515
      4 N         138.2823  139.5591  169.1881 N.ar    1  UNL1       -0.1329
      5 N         139.1617  140.0484  170.3003 N.ar    1  UNL1       -0.1409
      6 C         140.5549  140.5183  170.0034 C.ar    1  UNL1        0.1691
      7 C         141.4344  141.0076  171.1156 C.2     1  UNL1        0.2635
      8 N         142.6585  140.2310  171.5010 N.am    1  UNL1       -0.3240
      9 O         141.0898  142.2737  171.8426 O.2     1  UNL1       -0.2686
     10 H         142.8847  139.4001  171.0238 H       1  UNL1        0.1453
     11 H         143.2357  140.5522  172.2309 H       1  UNL1        0.1453
     12 N         142.4620  140.9685  168.2974 N.pl3   1  UNL1       -0.2965
     13 H         143.0963  141.1244  169.0339 H       1  UNL1        0.1537
     14 C         143.7654  140.2794  164.6128 C.ar    1  UNL1        0.0604
     15 C         143.7422  141.6655  164.0400 C.ar    1  UNL1        0.0148
     16 C         143.2922  142.8193  164.8863 C.ar    1  UNL1        0.0041
     17 C         142.8655  142.5870  166.3054 C.ar    1  UNL1        0.0344
     18 C         142.8887  141.2009  166.8782 C.ar    1  UNL1        0.1318
     19 N         143.3387  140.0471  166.0319 N.ar    1  UNL1       -0.2349
     20 C         143.4065  138.7100  162.5736 C.3     1  UNL1        0.0067
     21 C         144.2154  139.1255  163.7665 C.3     1  UNL1        0.0459
     22 N         137.9166  139.0501  166.6667 N.pl3   1  UNL1       -0.3170
     23 H         136.9712  138.8392  166.8431 H       1  UNL1        0.1482
     24 C         138.4775  138.8820  165.2857 C.3     1  UNL1        0.0845
     25 C         139.2056  137.6226  164.9201 C.3     1  UNL1        0.0209
     26 C         139.7665  137.4545  163.5390 C.3     1  UNL1        0.0018
     27 C         139.5992  138.5459  162.5237 C.3     1  UNL1        0.0015
     28 C         138.8711  139.8053  162.8894 C.3     1  UNL1        0.0172
     29 C         138.3102  139.9734  164.2703 C.3     1  UNL1        0.0689
     30 N         137.5821  141.2328  164.6360 N.3     1  UNL1       -0.3209
     31 H         137.2714  141.1765  165.6059 H       1  UNL1        0.1189
     32 H         136.7728  141.3471  164.0258 H       1  UNL1        0.1189
@<TRIPOS>BOND
     1    20    21    1
     2    21    14    1
     3    14    15   ar
     4    15    16   ar
     5    16    17   ar
     6    17    18   ar
     7    18    12    1
     8    12     1    1
     9     1     2   ar
    10     2     3   ar
    11     3    22    1
    12    24    22    1
    13    24    25    1
    14    25    26    1
    15    26    27    1
    16    27    28    1
    17    28    29    1
    18    29    30    1
    19     3     4   ar
    20     4     5   ar
    21     5     6   ar
    22     6     7    1
    23     7     8   am
    24     7     9    2
    25    18    19   ar
    26    19    14   ar
    27     6     1   ar
    28    29    24    1
    29    12    13    1
    30    22    23    1
    31    30    31    1
    32    30    32    1
    33     8    10    1
    34     8    11    1
@<TRIPOS>MOLECULE
*****
 32 34 0 0 0
SMALL
GASTEIGER

@<TRIPOS>ATOM
      1 C         139.4614  140.9339  165.2935 C.ar    1  UNL1        0.0764
      2 C         140.0224  140.9113  166.6845 C.ar    1  UNL1        0.0522
      3 C         139.4716  139.9544  167.6999 C.ar    1  UNL1        0.1515
      4 N         138.3599  139.0201  167.3243 N.ar    1  UNL1       -0.1329
      5 N         137.7989  139.0427  165.9334 N.ar    1  UNL1       -0.1409
      6 C         138.3496  139.9995  164.9180 C.ar    1  UNL1        0.1691
      7 C         137.7886  140.0221  163.5270 C.2     1  UNL1        0.2635
      8 N         136.9081  141.1557  163.0917 N.am    1  UNL1       -0.3240
      9 O         138.1082  138.9109  162.5713 O.2     1  UNL1       -0.2686
     10 H         136.6984  141.8850  163.7189 H       1  UNL1        0.1453
     11 H         136.5400  141.1705  162.1788 H       1  UNL1        0.1453
     12 N         140.0122  141.8907  164.2781 N.pl3   1  UNL1       -0.2965
     13 H         139.4187  142.2797  163.5957 H       1  UNL1        0.1537
     14 C         143.9650  141.5511  164.1794 C.ar    1  UNL1        0.0604
     15 C         144.3769  142.9831  164.3512 C.ar    1  UNL1        0.0148
     16 C         143.3339  144.0510  164.4986 C.ar    1  UNL1        0.0041
     17 C         141.8790  143.6869  164.4742 C.ar    1  UNL1        0.0344
     18 C         141.4671  142.2549  164.3025 C.ar    1  UNL1        0.1318
     19 N         142.5101  141.1870  164.1551 N.ar    1  UNL1       -0.2349
     20 C         144.7868  139.1298  164.6398 C.3     1  UNL1        0.0067
     21 C         145.0080  140.4832  164.0320 C.3     1  UNL1        0.0459
     22 N         140.0326  139.9319  169.0909 N.pl3   1  UNL1       -0.3170
     23 H         139.7282  139.2509  169.7334 H       1  UNL1        0.1482
     24 C         141.0574  140.9469  169.5028 C.3     1  UNL1        0.0845
     25 C         140.6309  142.3382  169.8667 C.3     1  UNL1        0.0209
     26 C         141.6557  143.3532  170.2787 C.3     1  UNL1        0.0018
     27 C         143.1069  142.9769  170.3266 C.3     1  UNL1        0.0015
     28 C         143.5334  141.5856  169.9627 C.3     1  UNL1        0.0172
     29 C         142.5086  140.5706  169.5508 C.3     1  UNL1        0.0689
     30 N         142.9351  139.1793  169.1868 N.3     1  UNL1       -0.3209
     31 H         142.1152  138.6276  168.9341 H       1  UNL1        0.1189
     32 H         143.4029  138.7476  169.9838 H       1  UNL1        0.1189
@<TRIPOS>BOND
     1    20    21    1
     2    21    14    1
     3    14    15   ar
     4    15    16   ar
     5    16    17   ar
     6    17    18   ar
     7    18    12    1
     8    12     1    1
     9     1     2   ar
    10     2     3   ar
    11     3    22    1
    12    24    22    1
    13    24    25    1
    14    25    26    1
    15    26    27    1
    16    27    28    1
    17    28    29    1
    18    29    30    1
    19     3     4   ar
    20     4     5   ar
    21     5     6   ar
    22     6     7    1
    23     7     8   am
    24     7     9    2
    25    18    19   ar
    26    19    14   ar
    27     6     1   ar
    28    29    24    1
    29    12    13    1
    30    22    23    1
    31    30    31    1
    32    30    32    1
    33     8    10    1
    34     8    11    1
@<TRIPOS>MOLECULE
*****
 32 34 0 0 0
SMALL
GASTEIGER

@<TRIPOS>ATOM
      1 C         137.8875  140.0242  163.8429 C.ar    1  UNL1        0.0764
      2 C         138.0290  140.1078  165.3339 C.ar    1  UNL1        0.0522
      3 C         138.7176  139.0068  166.0847 C.ar    1  UNL1        0.1515
      4 N         139.2647  137.8224  165.3447 N.ar    1  UNL1       -0.1329
      5 N         139.1233  137.7389  163.8537 N.ar    1  UNL1       -0.1409
      6 C         138.4346  138.8397  163.1028 C.ar    1  UNL1        0.1691
      7 C         138.2931  138.7562  161.6118 C.2     1  UNL1        0.2635
      8 N         139.3611  138.0936  160.7931 N.am    1  UNL1       -0.3240
      9 O         137.0836  139.3352  160.9396 O.2     1  UNL1       -0.2686
     10 H         140.1549  137.7136  161.2343 H       1  UNL1        0.1453
     11 H         139.2682  138.0388  159.8145 H       1  UNL1        0.1453
     12 N         137.1988  141.1251  163.0920 N.pl3   1  UNL1       -0.2965
     13 H         136.2684  141.0091  162.7920 H       1  UNL1        0.1537
     14 C         139.4023  143.8382  161.2122 C.ar    1  UNL1        0.0604
     15 C         139.3860  144.9577  162.2104 C.ar    1  UNL1        0.0148
     16 C         138.6407  144.7996  163.5025 C.ar    1  UNL1        0.0041
     17 C         137.9116  143.5221  163.7964 C.ar    1  UNL1        0.0344
     18 C         137.9279  142.4027  162.7982 C.ar    1  UNL1        0.1318
     19 N         138.6733  142.5607  161.5061 N.ar    1  UNL1       -0.2349
     20 C         140.3840  145.3646  159.3531 C.3     1  UNL1        0.0067
     21 C         140.1477  143.9962  159.9201 C.3     1  UNL1        0.0459
     22 N         138.8591  139.0904  167.5757 N.pl3   1  UNL1       -0.3170
     23 H         138.5264  138.3582  168.1436 H       1  UNL1        0.1482
     24 C         139.5075  140.2896  168.2015 C.3     1  UNL1        0.0845
     25 C         140.4906  141.1060  167.4161 C.3     1  UNL1        0.0209
     26 C         141.1390  142.3053  168.0419 C.3     1  UNL1        0.0018
     27 C         140.8042  142.6880  169.4531 C.3     1  UNL1        0.0015
     28 C         139.8211  141.8714  170.2385 C.3     1  UNL1        0.0172
     29 C         139.1727  140.6723  169.6127 C.3     1  UNL1        0.0689
     30 N         138.1896  139.8558  170.3981 N.3     1  UNL1       -0.3209
     31 H         137.8507  139.0852  169.8221 H       1  UNL1        0.1189
     32 H         137.4038  140.4441  170.6755 H       1  UNL1        0.1189
@<TRIPOS>BOND
     1    20    21    1
     2    21    14    1
     3    14    15   ar
     4    15    16   ar
     5    16    17   ar
     6    17    18   ar
     7    18    12    1
     8    12     1    1
     9     1     2   ar
    10     2     3   ar
    11     3    22    1
    12    24    22    1
    13    24    25    1
    14    25    26    1
    15    26    27    1
    16    27    28    1
    17    28    29    1
    18    29    30    1
    19     3     4   ar
    20     4     5   ar
    21     5     6   ar
    22     6     7    1
    23     7     8   am
    24     7     9    2
    25    18    19   ar
    26    19    14   ar
    27     6     1   ar
    28    29    24    1
    29    12    13    1
    30    22    23    1
    31    30    31    1
    32    30    32    1
    33     8    10    1
    34     8    11    1
@<TRIPOS>MOLECULE
*****
 32 34 0 0 0
SMALL
GASTEIGER

@<TRIPOS>ATOM
      1 C         140.8581  144.3147  160.8517 C.ar    1  UNL1        0.0764
      2 C         139.9915  143.5948  161.8420 C.ar    1  UNL1        0.0522
      3 C         138.7262  142.9296  161.3873 C.ar    1  UNL1        0.1515
      4 N         138.3276  142.9843  159.9423 N.ar    1  UNL1       -0.1329
      5 N         139.1943  143.7041  158.9519 N.ar    1  UNL1       -0.1409
      6 C         140.4594  144.3693  159.4066 C.ar    1  UNL1        0.1691
      7 C         141.3261  145.0891  158.4162 C.2     1  UNL1        0.2635
      8 N         140.7584  146.2119  157.5996 N.am    1  UNL1       -0.3240
      9 O         142.7605  144.6861  158.2426 O.2     1  UNL1       -0.2686
     10 H         139.8169  146.4765  157.7136 H       1  UNL1        0.1453
     11 H         141.3272  146.6844  156.9496 H       1  UNL1        0.1453
     12 N         142.1233  144.9798  161.3063 N.pl3   1  UNL1       -0.2965
     13 H         142.4007  145.8356  160.9064 H       1  UNL1        0.1537
     14 C         144.4349  142.3614  163.1907 C.ar    1  UNL1        0.0604
     15 C         144.6511  143.0637  164.4983 C.ar    1  UNL1        0.0148
     16 C         144.0247  144.4047  164.7420 C.ar    1  UNL1        0.0041
     17 C         143.1821  145.0434  163.6780 C.ar    1  UNL1        0.0344
     18 C         142.9659  144.3411  162.3704 C.ar    1  UNL1        0.1318
     19 N         143.5923  143.0001  162.1267 N.ar    1  UNL1       -0.2349
     20 C         144.9543  139.9429  163.9850 C.3     1  UNL1        0.0067
     21 C         145.0612  141.0204  162.9470 C.3     1  UNL1        0.0459
     22 N         137.8596  142.2098  162.3776 N.pl3   1  UNL1       -0.3170
     23 H         137.1226  142.6858  162.8243 H       1  UNL1        0.1482
     24 C         138.1159  140.7646  162.6875 C.3     1  UNL1        0.0845
     25 C         137.9122  139.7228  161.6278 C.3     1  UNL1        0.0209
     26 C         138.1685  138.2776  161.9377 C.3     1  UNL1        0.0018
     27 C         138.6286  137.8744  163.3073 C.3     1  UNL1        0.0015
     28 C         138.8323  138.9164  164.3670 C.3     1  UNL1        0.0172
     29 C         138.5760  140.3614  164.0571 C.3     1  UNL1        0.0689
     30 N         138.7797  141.4034  165.1168 N.3     1  UNL1       -0.3209
     31 H         138.5607  142.3236  164.7353 H       1  UNL1        0.1189
     32 H         139.7509  141.3866  165.4279 H       1  UNL1        0.1189
@<TRIPOS>BOND
     1    20    21    1
     2    21    14    1
     3    14    15   ar
     4    15    16   ar
     5    16    17   ar
     6    17    18   ar
     7    18    12    1
     8    12     1    1
     9     1     2   ar
    10     2     3   ar
    11     3    22    1
    12    24    22    1
    13    24    25    1
    14    25    26    1
    15    26    27    1
    16    27    28    1
    17    28    29    1
    18    29    30    1
    19     3     4   ar
    20     4     5   ar
    21     5     6   ar
    22     6     7    1
    23     7     8   am
    24     7     9    2
    25    18    19   ar
    26    19    14   ar
    27     6     1   ar
    28    29    24    1
    29    12    13    1
    30    22    23    1
    31    30    31    1
    32    30    32    1
    33     8    10    1
    34     8    11    1
@<TRIPOS>MOLECULE
*****
 32 34 0 0 0
SMALL
GASTEIGER

@<TRIPOS>ATOM
      1 C         140.2755  139.7402  165.0289 C.ar    1  UNL1        0.0764
      2 C         140.5725  139.9690  166.4812 C.ar    1  UNL1        0.0522
      3 C         139.5458  139.6263  167.5198 C.ar    1  UNL1        0.1515
      4 N         138.2221  139.0550  167.1060 N.ar    1  UNL1       -0.1329
      5 N         137.9251  138.8262  165.6536 N.ar    1  UNL1       -0.1409
      6 C         138.9517  139.1688  164.6150 C.ar    1  UNL1        0.1691
      7 C         138.6546  138.9400  163.1627 C.2     1  UNL1        0.2635
      8 N         138.4642  137.5445  162.6468 N.am    1  UNL1       -0.3240
      9 O         138.5480  140.1069  162.2261 O.2     1  UNL1       -0.2686
     10 H         138.5342  136.7786  163.2615 H       1  UNL1        0.1453
     11 H         138.2693  137.3943  161.6936 H       1  UNL1        0.1453
     12 N         141.3021  140.0828  163.9903 N.pl3   1  UNL1       -0.2965
     13 H         141.4155  139.5054  163.2010 H       1  UNL1        0.1537
     14 C         142.4286  143.8874  164.0679 C.ar    1  UNL1        0.0604
     15 C         143.8636  143.7497  164.4824 C.ar    1  UNL1        0.0148
     16 C         144.4448  142.3898  164.7329 C.ar    1  UNL1        0.0041
     17 C         143.5910  141.1675  164.5689 C.ar    1  UNL1        0.0344
     18 C         142.1560  141.3051  164.1544 C.ar    1  UNL1        0.1318
     19 N         141.5748  142.6651  163.9039 N.ar    1  UNL1       -0.2349
     20 C         140.8691  145.4505  162.6988 C.3     1  UNL1        0.0067
     21 C         141.8475  145.2474  163.8175 C.3     1  UNL1        0.0459
     22 N         139.8429  139.8551  168.9722 N.pl3   1  UNL1       -0.3170
     23 H         139.3748  139.3279  169.6594 H       1  UNL1        0.1482
     24 C         140.8532  140.8872  169.3776 C.3     1  UNL1        0.0845
     25 C         140.4339  142.3156  169.5614 C.3     1  UNL1        0.0209
     26 C         141.4442  143.3476  169.9667 C.3     1  UNL1        0.0018
     27 C         142.8738  142.9511  170.1883 C.3     1  UNL1        0.0015
     28 C         143.2931  141.5227  170.0045 C.3     1  UNL1        0.0172
     29 C         142.2828  140.4907  169.5991 C.3     1  UNL1        0.0689
     30 N         142.7021  139.0622  169.4153 N.3     1  UNL1       -0.3209
     31 H         141.8940  138.5032  169.1416 H       1  UNL1        0.1189
     32 H         143.0822  138.7040  170.2914 H       1  UNL1        0.1189
@<TRIPOS>BOND
     1    20    21    1
     2    21    14    1
     3    14    15   ar
     4    15    16   ar
     5    16    17   ar
     6    17    18   ar
     7    18    12    1
     8    12     1    1
     9     1     2   ar
    10     2     3   ar
    11     3    22    1
    12    24    22    1
    13    24    25    1
    14    25    26    1
    15    26    27    1
    16    27    28    1
    17    28    29    1
    18    29    30    1
    19     3     4   ar
    20     4     5   ar
    21     5     6   ar
    22     6     7    1
    23     7     8   am
    24     7     9    2
    25    18    19   ar
    26    19    14   ar
    27     6     1   ar
    28    29    24    1
    29    12    13    1
    30    22    23    1
    31    30    31    1
    32    30    32    1
    33     8    10    1
    34     8    11    1
@<TRIPOS>MOLECULE
*****
 32 34 0 0 0
SMALL
GASTEIGER

@<TRIPOS>ATOM
      1 C         141.5527  141.6370  167.6019 C.ar    1  UNL1        0.0764
      2 C         142.1664  140.6851  166.6184 C.ar    1  UNL1        0.0522
      3 C         142.8273  139.4287  167.1030 C.ar    1  UNL1        0.1515
      4 N         142.8745  139.1243  168.5710 N.ar    1  UNL1       -0.1329
      5 N         142.2608  140.0762  169.5545 N.ar    1  UNL1       -0.1409
      6 C         141.5999  141.3326  169.0700 C.ar    1  UNL1        0.1691
      7 C         140.9862  142.2845  170.0534 C.2     1  UNL1        0.2635
      8 N         139.5976  142.0415  170.5660 N.am    1  UNL1       -0.3240
      9 O         141.7611  143.4794  170.5243 O.2     1  UNL1       -0.2686
     10 H         139.0890  141.2572  170.2570 H       1  UNL1        0.1453
     11 H         139.1948  142.6663  171.2115 H       1  UNL1        0.1453
     12 N         140.8917  142.8934  167.1174 N.pl3   1  UNL1       -0.2965
     13 H         141.1440  143.7629  167.5041 H       1  UNL1        0.1537
     14 C         138.3700  141.4263  164.4269 C.ar    1  UNL1        0.0604
     15 C         137.7561  142.6878  163.8963 C.ar    1  UNL1        0.0148
     16 C         138.1874  144.0179  164.4393 C.ar    1  UNL1        0.0041
     17 C         139.2326  144.0864  165.5130 C.ar    1  UNL1        0.0344
     18 C         139.8465  142.8249  166.0436 C.ar    1  UNL1        0.1318
     19 N         139.4152  141.4948  165.5006 N.ar    1  UNL1       -0.2349
     20 C         137.9485  139.8513  162.4041 C.3     1  UNL1        0.0067
     21 C         137.9386  140.0962  163.8839 C.3     1  UNL1        0.0459
     22 N         143.4410  138.4768  166.1195 N.pl3   1  UNL1       -0.3170
     23 H         144.2771  138.0081  166.3442 H       1  UNL1        0.1482
     24 C         142.7807  138.2390  164.7938 C.3     1  UNL1        0.0845
     25 C         141.4450  137.5592  164.7324 C.3     1  UNL1        0.0209
     26 C         140.7847  137.3214  163.4066 C.3     1  UNL1        0.0018
     27 C         141.4602  137.7634  162.1423 C.3     1  UNL1        0.0015
     28 C         142.7959  138.4432  162.2038 C.3     1  UNL1        0.0172
     29 C         143.4562  138.6810  163.5295 C.3     1  UNL1        0.0689
     30 N         144.7919  139.3608  163.5910 N.3     1  UNL1       -0.3209
     31 H         145.0890  139.4393  164.5636 H       1  UNL1        0.1189
     32 H         144.7185  140.2922  163.1817 H       1  UNL1        0.1189
@<TRIPOS>BOND
     1    20    21    1
     2    21    14    1
     3    14    15   ar
     4    15    16   ar
     5    16    17   ar
     6    17    18   ar
     7    18    12    1
     8    12     1    1
     9     1     2   ar
    10     2     3   ar
    11     3    22    1
    12    24    22    1
    13    24    25    1
    14    25    26    1
    15    26    27    1
    16    27    28    1
    17    28    29    1
    18    29    30    1
    19     3     4   ar
    20     4     5   ar
    21     5     6   ar
    22     6     7    1
    23     7     8   am
    24     7     9    2
    25    18    19   ar
    26    19    14   ar
    27     6     1   ar
    28    29    24    1
    29    12    13    1
    30    22    23    1
    31    30    31    1
    32    30    32    1
    33     8    10    1
    34     8    11    1
