@<TRIPOS>MOLECULE
*****
 27 30 0 0 0
SMALL
GASTEIGER

@<TRIPOS>ATOM
      1 C         141.9020  142.2657  165.8519 C.3     1  UNL1        0.1686
      2 C         140.9148  143.1634  165.1666 C.3     1  UNL1        0.0595
      3 C         141.3991  144.2739  164.2822 C.3     1  UNL1        0.0614
      4 C         142.2982  145.2080  163.5278 C.3     1  UNL1        0.0175
      5 C         143.7176  144.8127  163.8086 C.3     1  UNL1        0.0175
      6 C         143.6958  143.6343  164.7364 C.3     1  UNL1        0.0614
      7 C         143.3735  142.4787  165.6528 C.3     1  UNL1        0.0595
      8 N         142.2628  143.3013  165.0292 N.3     1  UNL1       -0.2713
      9 O         141.4179  141.1551  166.7364 O.3     1  UNL1       -0.4789
     10 C         141.2960  138.8240  165.5959 C.ar    1  UNL1        0.0870
     11 C         140.4864  137.7022  165.0160 C.ar    1  UNL1        0.0076
     12 C         138.9891  137.7898  164.9969 C.ar    1  UNL1        0.0003
     13 C         138.3014  138.9992  165.5576 C.ar    1  UNL1        0.0031
     14 C         139.1110  140.1209  166.1374 C.ar    1  UNL1        0.0370
     15 C         140.6083  140.0333  166.1565 C.ar    1  UNL1        0.1427
     16 N         143.5207  138.6129  166.9209 N.am    1  UNL1       -0.3252
     17 C         142.7933  138.7364  165.6150 C.2     1  UNL1        0.2457
     18 O         143.5632  138.7724  164.3281 O.2     1  UNL1       -0.2703
     19 H         144.5035  138.5554  166.9335 H       1  UNL1        0.1453
     20 H         143.0154  138.5892  167.7655 H       1  UNL1        0.1453
     21 C         141.7786  142.1908  165.9136 C.3     1  UNL1        0.0991
     22 C         141.8214  142.3467  167.4049 C.ar    1  UNL1       -0.0061
     23 C         140.6360  142.9051  168.1349 C.ar    1  UNL1       -0.0029
     24 C         140.6788  143.0610  169.6261 C.ar    1  UNL1       -0.0003
     25 C         141.9070  142.6584  170.3873 C.ar    1  UNL1       -0.0000
     26 C         143.0925  142.1000  169.6573 C.ar    1  UNL1       -0.0003
     27 C         143.0496  141.9441  168.1660 C.ar    1  UNL1       -0.0029
@<TRIPOS>BOND
     1    16    17   am
     2    17    18    2
     3    17    10    1
     4    10    11   ar
     5    11    12   ar
     6    12    13   ar
     7    13    14   ar
     8    14    15   ar
     9    15     9    1
    10     1     9    1
    11     1     2    1
    12     3     2    1
    13     3     4    1
    14     4     5    1
    15     6     5    1
    16     6     7    1
    17     6     8    1
    18     8    21    1
    19    21    22    1
    20    22    23   ar
    21    23    24   ar
    22    24    25   ar
    23    25    26   ar
    24    26    27   ar
    25    15    10   ar
    26     7     1    1
    27    27    22   ar
    28     8     3    1
    29    16    19    1
    30    16    20    1
@<TRIPOS>MOLECULE
*****
 27 30 0 0 0
SMALL
GASTEIGER

@<TRIPOS>ATOM
      1 C         140.4980  141.6727  166.6875 C.3     1  UNL1        0.1686
      2 C         139.9192  140.3558  167.1128 C.3     1  UNL1        0.0595
      3 C         139.5115  140.1418  168.5403 C.3     1  UNL1        0.0614
      4 C         139.2575  140.3698  170.0010 C.3     1  UNL1        0.0175
      5 C         139.6905  141.7668  170.3341 C.3     1  UNL1        0.0175
      6 C         140.2121  142.4021  169.0794 C.3     1  UNL1        0.0614
      7 C         140.6691  142.7755  167.6899 C.3     1  UNL1        0.0595
      8 N         140.1014  141.3978  167.9708 N.3     1  UNL1       -0.2713
      9 O         140.9058  141.8868  165.2599 O.3     1  UNL1       -0.4789
     10 C         142.8537  140.4363  164.3372 C.ar    1  UNL1        0.0870
     11 C         144.2931  140.2958  163.9392 C.ar    1  UNL1        0.0076
     12 C         145.2239  141.4652  164.0659 C.ar    1  UNL1        0.0003
     13 C         144.7153  142.7751  164.5907 C.ar    1  UNL1        0.0031
     14 C         143.2760  142.9156  164.9886 C.ar    1  UNL1        0.0370
     15 C         142.3452  141.7462  164.8619 C.ar    1  UNL1        0.1427
     16 N         140.7360  139.3487  163.2969 N.am    1  UNL1       -0.3252
     17 C         141.9229  139.2669  164.2105 C.2     1  UNL1        0.2457
     18 O         142.1790  138.0158  164.9974 O.2     1  UNL1       -0.2703
     19 H         140.1251  138.5811  163.2137 H       1  UNL1        0.1453
     20 H         140.5680  140.1698  162.7805 H       1  UNL1        0.1453
     21 C         140.5092  141.6118  166.5432 C.3     1  UNL1        0.0991
     22 C         139.6238  142.3949  165.6196 C.ar    1  UNL1       -0.0061
     23 C         139.7802  143.8829  165.5132 C.ar    1  UNL1       -0.0029
     24 C         138.8949  144.6659  164.5897 C.ar    1  UNL1       -0.0003
     25 C         137.8530  143.9610  163.7726 C.ar    1  UNL1       -0.0000
     26 C         137.6965  142.4729  163.8791 C.ar    1  UNL1       -0.0003
     27 C         138.5820  141.6899  164.8027 C.ar    1  UNL1       -0.0029
@<TRIPOS>BOND
     1    16    17   am
     2    17    18    2
     3    17    10    1
     4    10    11   ar
     5    11    12   ar
     6    12    13   ar
     7    13    14   ar
     8    14    15   ar
     9    15     9    1
    10     1     9    1
    11     1     2    1
    12     3     2    1
    13     3     4    1
    14     4     5    1
    15     6     5    1
    16     6     7    1
    17     6     8    1
    18     8    21    1
    19    21    22    1
    20    22    23   ar
    21    23    24   ar
    22    24    25   ar
    23    25    26   ar
    24    26    27   ar
    25    15    10   ar
    26     7     1    1
    27    27    22   ar
    28     8     3    1
    29    16    19    1
    30    16    20    1
@<TRIPOS>MOLECULE
*****
 27 30 0 0 0
SMALL
GASTEIGER

@<TRIPOS>ATOM
      1 C         141.2612  141.9202  167.0689 C.3     1  UNL1        0.1686
      2 C         142.7078  141.5748  167.2637 C.3     1  UNL1        0.0595
      3 C         143.4096  141.9712  168.5287 C.3     1  UNL1        0.0614
      4 C         143.6863  142.5421  169.8880 C.3     1  UNL1        0.0175
      5 C         142.4211  143.1698  170.3932 C.3     1  UNL1        0.0175
      6 C         141.3626  142.9868  169.3463 C.3     1  UNL1        0.0614
      7 C         140.5164  142.6620  168.1390 C.3     1  UNL1        0.0595
      8 N         141.9735  142.2460  168.1940 N.3     1  UNL1       -0.2713
      9 O         140.5592  141.5238  165.8038 O.3     1  UNL1       -0.4789
     10 C         140.6556  139.1051  164.8603 C.ar    1  UNL1        0.0870
     11 C         140.0567  137.7358  164.7323 C.ar    1  UNL1        0.0076
     12 C         138.7625  137.4160  165.4200 C.ar    1  UNL1        0.0003
     13 C         138.0673  138.4655  166.2356 C.ar    1  UNL1        0.0031
     14 C         138.6662  139.8347  166.3635 C.ar    1  UNL1        0.0370
     15 C         139.9603  140.1545  165.6759 C.ar    1  UNL1        0.1427
     16 N         141.9682  140.3793  163.0155 N.am    1  UNL1       -0.3252
     17 C         141.9497  139.4250  164.1726 C.2     1  UNL1        0.2457
     18 O         143.2253  138.7905  164.6420 O.2     1  UNL1       -0.2703
     19 H         142.8176  140.5892  162.5641 H       1  UNL1        0.1453
     20 H         141.1310  140.7957  162.7074 H       1  UNL1        0.1453
     21 C         141.2716  141.8496  166.9290 C.3     1  UNL1        0.0991
     22 C         140.9524  142.8855  165.8921 C.ar    1  UNL1       -0.0061
     23 C         141.9880  143.2782  164.8805 C.ar    1  UNL1       -0.0029
     24 C         141.6688  144.3140  163.8437 C.ar    1  UNL1       -0.0003
     25 C         140.3140  144.9573  163.8185 C.ar    1  UNL1       -0.0000
     26 C         139.2783  144.5646  164.8302 C.ar    1  UNL1       -0.0003
     27 C         139.5976  143.5287  165.8669 C.ar    1  UNL1       -0.0029
@<TRIPOS>BOND
     1    16    17   am
     2    17    18    2
     3    17    10    1
     4    10    11   ar
     5    11    12   ar
     6    12    13   ar
     7    13    14   ar
     8    14    15   ar
     9    15     9    1
    10     1     9    1
    11     1     2    1
    12     3     2    1
    13     3     4    1
    14     4     5    1
    15     6     5    1
    16     6     7    1
    17     6     8    1
    18     8    21    1
    19    21    22    1
    20    22    23   ar
    21    23    24   ar
    22    24    25   ar
    23    25    26   ar
    24    26    27   ar
    25    15    10   ar
    26     7     1    1
    27    27    22   ar
    28     8     3    1
    29    16    19    1
    30    16    20    1
@<TRIPOS>MOLECULE
*****
 27 30 0 0 0
SMALL
GASTEIGER

@<TRIPOS>ATOM
      1 C         141.3449  141.8868  166.7210 C.3     1  UNL1        0.1686
      2 C         142.8132  141.8653  167.0269 C.3     1  UNL1        0.0595
      3 C         143.3000  142.2441  168.3942 C.3     1  UNL1        0.0614
      4 C         143.3260  142.6795  169.8294 C.3     1  UNL1        0.0175
      5 C         141.9117  142.9229  170.2656 C.3     1  UNL1        0.0175
      6 C         141.0115  142.6380  169.1000 C.3     1  UNL1        0.0614
      7 C         140.3634  142.2870  167.7824 C.3     1  UNL1        0.0595
      8 N         141.8696  142.2184  167.9434 N.3     1  UNL1       -0.2713
      9 O         140.8580  141.5081  165.3537 O.3     1  UNL1       -0.4789
     10 C         139.7686  139.1747  165.0100 C.ar    1  UNL1        0.0870
     11 C         139.8656  137.7512  164.5470 C.ar    1  UNL1        0.0076
     12 C         141.1490  137.2378  163.9646 C.ar    1  UNL1        0.0003
     13 C         142.3355  138.1478  163.8452 C.ar    1  UNL1        0.0031
     14 C         142.2384  139.5712  164.3082 C.ar    1  UNL1        0.0370
     15 C         140.9550  140.0846  164.8906 C.ar    1  UNL1        0.1427
     16 N         137.7264  140.7764  164.8925 N.am    1  UNL1       -0.3252
     17 C         138.4852  139.6881  165.5924 C.2     1  UNL1        0.2457
     18 O         137.9606  139.1132  166.8747 O.2     1  UNL1       -0.2703
     19 H         136.8841  141.1134  165.2747 H       1  UNL1        0.1453
     20 H         138.0708  141.1536  164.0508 H       1  UNL1        0.1453
     21 C         141.3828  141.8397  166.5761 C.3     1  UNL1        0.0991
     22 C         141.0127  142.9071  165.5894 C.ar    1  UNL1       -0.0061
     23 C         142.0264  143.3959  164.5977 C.ar    1  UNL1       -0.0029
     24 C         141.6563  144.4633  163.6111 C.ar    1  UNL1       -0.0003
     25 C         140.2725  145.0420  163.6160 C.ar    1  UNL1       -0.0000
     26 C         139.2586  144.5532  164.6078 C.ar    1  UNL1       -0.0003
     27 C         139.6289  143.4858  165.5944 C.ar    1  UNL1       -0.0029
@<TRIPOS>BOND
     1    16    17   am
     2    17    18    2
     3    17    10    1
     4    10    11   ar
     5    11    12   ar
     6    12    13   ar
     7    13    14   ar
     8    14    15   ar
     9    15     9    1
    10     1     9    1
    11     1     2    1
    12     3     2    1
    13     3     4    1
    14     4     5    1
    15     6     5    1
    16     6     7    1
    17     6     8    1
    18     8    21    1
    19    21    22    1
    20    22    23   ar
    21    23    24   ar
    22    24    25   ar
    23    25    26   ar
    24    26    27   ar
    25    15    10   ar
    26     7     1    1
    27    27    22   ar
    28     8     3    1
    29    16    19    1
    30    16    20    1
@<TRIPOS>MOLECULE
*****
 27 30 0 0 0
SMALL
GASTEIGER

@<TRIPOS>ATOM
      1 C         140.4997  141.5521  166.6731 C.3     1  UNL1        0.1686
      2 C         139.8509  140.2760  167.1207 C.3     1  UNL1        0.0595
      3 C         139.4215  140.1137  168.5488 C.3     1  UNL1        0.0614
      4 C         139.1679  140.3858  170.0019 C.3     1  UNL1        0.0175
      5 C         139.6691  141.7657  170.3094 C.3     1  UNL1        0.0175
      6 C         140.2325  142.3465  169.0463 C.3     1  UNL1        0.0614
      7 C         140.7191  142.6660  167.6534 C.3     1  UNL1        0.0595
      8 N         140.0794  141.3255  167.9582 N.3     1  UNL1       -0.2713
      9 O         140.9292  141.7144  165.2450 O.3     1  UNL1       -0.4789
     10 C         143.4754  141.5409  164.7584 C.ar    1  UNL1        0.0870
     11 C         144.6481  140.7656  164.2352 C.ar    1  UNL1        0.0076
     12 C         144.4473  139.3886  163.6754 C.ar    1  UNL1        0.0003
     13 C         143.0738  138.7868  163.6389 C.ar    1  UNL1        0.0031
     14 C         141.9011  139.5620  164.1620 C.ar    1  UNL1        0.0370
     15 C         142.1019  140.9391  164.7218 C.ar    1  UNL1        0.1427
     16 N         143.5284  144.1175  164.4298 N.am    1  UNL1       -0.3252
     17 C         143.6762  142.9180  165.3182 C.2     1  UNL1        0.2457
     18 O         144.0247  143.0955  166.7663 O.2     1  UNL1       -0.2703
     19 H         143.6602  145.0214  164.7972 H       1  UNL1        0.1453
     20 H         143.2997  144.0010  163.4794 H       1  UNL1        0.1453
     21 C         140.5089  141.4877  166.5301 C.3     1  UNL1        0.0991
     22 C         139.6875  142.3190  165.5897 C.ar    1  UNL1       -0.0061
     23 C         138.5262  141.7053  164.8654 C.ar    1  UNL1       -0.0029
     24 C         137.7048  142.5366  163.9250 C.ar    1  UNL1       -0.0003
     25 C         138.0448  143.9814  163.7089 C.ar    1  UNL1       -0.0000
     26 C         139.2062  144.5951  164.4333 C.ar    1  UNL1       -0.0003
     27 C         140.0275  143.7638  165.3737 C.ar    1  UNL1       -0.0029
@<TRIPOS>BOND
     1    16    17   am
     2    17    18    2
     3    17    10    1
     4    10    11   ar
     5    11    12   ar
     6    12    13   ar
     7    13    14   ar
     8    14    15   ar
     9    15     9    1
    10     1     9    1
    11     1     2    1
    12     3     2    1
    13     3     4    1
    14     4     5    1
    15     6     5    1
    16     6     7    1
    17     6     8    1
    18     8    21    1
    19    21    22    1
    20    22    23   ar
    21    23    24   ar
    22    24    25   ar
    23    25    26   ar
    24    26    27   ar
    25    15    10   ar
    26     7     1    1
    27    27    22   ar
    28     8     3    1
    29    16    19    1
    30    16    20    1
@<TRIPOS>MOLECULE
*****
 27 30 0 0 0
SMALL
GASTEIGER

@<TRIPOS>ATOM
      1 C         141.8033  141.9533  166.7478 C.3     1  UNL1        0.1686
      2 C         140.4988  142.5420  167.1969 C.3     1  UNL1        0.0595
      3 C         140.3651  143.0990  168.5832 C.3     1  UNL1        0.0614
      4 C         140.6795  143.5179  169.9888 C.3     1  UNL1        0.0175
      5 C         142.1085  143.1597  170.2706 C.3     1  UNL1        0.0175
      6 C         142.6774  142.5193  169.0392 C.3     1  UNL1        0.0614
      7 C         142.9740  141.9215  167.6850 C.3     1  UNL1        0.0595
      8 N         141.5998  142.4818  167.9963 N.3     1  UNL1       -0.2713
      9 O         141.9371  141.3964  165.3614 O.3     1  UNL1       -0.4789
     10 C         141.9940  138.8092  165.1307 C.ar    1  UNL1        0.0870
     11 C         141.3135  137.5218  164.7708 C.ar    1  UNL1        0.0076
     12 C         139.8956  137.5343  164.2815 C.ar    1  UNL1        0.0003
     13 C         139.1582  138.8341  164.1522 C.ar    1  UNL1        0.0031
     14 C         139.8387  140.1214  164.5122 C.ar    1  UNL1        0.0370
     15 C         141.2566  140.1090  165.0014 C.ar    1  UNL1        0.1427
     16 N         144.5155  139.2930  164.7335 N.am    1  UNL1       -0.3252
     17 C         143.4119  138.7968  165.6200 C.2     1  UNL1        0.2457
     18 O         143.7262  138.2882  166.9957 O.2     1  UNL1       -0.2703
     19 H         145.4461  139.2849  165.0546 H       1  UNL1        0.1453
     20 H         144.3092  139.6268  163.8306 H       1  UNL1        0.1453
     21 C         141.7336  141.9248  166.6100 C.3     1  UNL1        0.0991
     22 C         142.3741  142.7460  165.5304 C.ar    1  UNL1       -0.0061
     23 C         143.8555  142.6686  165.3083 C.ar    1  UNL1       -0.0029
     24 C         144.4960  143.4897  164.2288 C.ar    1  UNL1       -0.0003
     25 C         143.6550  144.3882  163.3712 C.ar    1  UNL1       -0.0000
     26 C         142.1735  144.4656  163.5932 C.ar    1  UNL1       -0.0003
     27 C         141.5331  143.6445  164.6729 C.ar    1  UNL1       -0.0029
@<TRIPOS>BOND
     1    16    17   am
     2    17    18    2
     3    17    10    1
     4    10    11   ar
     5    11    12   ar
     6    12    13   ar
     7    13    14   ar
     8    14    15   ar
     9    15     9    1
    10     1     9    1
    11     1     2    1
    12     3     2    1
    13     3     4    1
    14     4     5    1
    15     6     5    1
    16     6     7    1
    17     6     8    1
    18     8    21    1
    19    21    22    1
    20    22    23   ar
    21    23    24   ar
    22    24    25   ar
    23    25    26   ar
    24    26    27   ar
    25    15    10   ar
    26     7     1    1
    27    27    22   ar
    28     8     3    1
    29    16    19    1
    30    16    20    1
@<TRIPOS>MOLECULE
*****
 27 30 0 0 0
SMALL
GASTEIGER

@<TRIPOS>ATOM
      1 C         142.2782  141.3090  165.8218 C.3     1  UNL1        0.1686
      2 C         143.1450  142.4209  165.3096 C.3     1  UNL1        0.0595
      3 C         144.4141  142.1050  164.5751 C.3     1  UNL1        0.0614
      4 C         145.5383  141.3514  163.9282 C.3     1  UNL1        0.0175
      5 C         145.2701  139.8851  164.0956 C.3     1  UNL1        0.0175
      6 C         143.9803  139.7324  164.8459 C.3     1  UNL1        0.0614
      7 C         142.6806  139.8811  165.5995 C.3     1  UNL1        0.0595
      8 N         143.4512  141.1044  165.1422 N.3     1  UNL1       -0.2713
      9 O         141.0091  141.6249  166.5563 O.3     1  UNL1       -0.4789
     10 C         138.8423  141.6334  165.1229 C.ar    1  UNL1        0.0870
     11 C         137.7441  142.3870  164.4329 C.ar    1  UNL1        0.0076
     12 C         137.7146  143.8857  164.4864 C.ar    1  UNL1        0.0003
     13 C         138.7832  144.6308  165.2299 C.ar    1  UNL1        0.0031
     14 C         139.8813  143.8772  165.9199 C.ar    1  UNL1        0.0370
     15 C         139.9109  142.3785  165.8664 C.ar    1  UNL1        0.1427
     16 N         138.1474  139.3326  166.1095 N.am    1  UNL1       -0.3252
     17 C         138.8718  140.1346  165.0693 C.2     1  UNL1        0.2457
     18 O         139.6258  139.4379  163.9756 O.2     1  UNL1       -0.2703
     19 H         138.1668  138.3489  166.0744 H       1  UNL1        0.1453
     20 H         137.6526  139.7899  166.8274 H       1  UNL1        0.1453
     21 C         142.1821  141.4203  165.8767 C.3     1  UNL1        0.0991
     22 C         142.1049  141.2199  167.3613 C.ar    1  UNL1       -0.0061
     23 C         142.7981  142.1777  168.2844 C.ar    1  UNL1       -0.0029
     24 C         142.7210  141.9773  169.7689 C.ar    1  UNL1       -0.0003
     25 C         141.9506  140.8191  170.3303 C.ar    1  UNL1       -0.0000
     26 C         141.2574  139.8613  169.4072 C.ar    1  UNL1       -0.0003
     27 C         141.3346  140.0617  167.9227 C.ar    1  UNL1       -0.0029
@<TRIPOS>BOND
     1    16    17   am
     2    17    18    2
     3    17    10    1
     4    10    11   ar
     5    11    12   ar
     6    12    13   ar
     7    13    14   ar
     8    14    15   ar
     9    15     9    1
    10     1     9    1
    11     1     2    1
    12     3     2    1
    13     3     4    1
    14     4     5    1
    15     6     5    1
    16     6     7    1
    17     6     8    1
    18     8    21    1
    19    21    22    1
    20    22    23   ar
    21    23    24   ar
    22    24    25   ar
    23    25    26   ar
    24    26    27   ar
    25    15    10   ar
    26     7     1    1
    27    27    22   ar
    28     8     3    1
    29    16    19    1
    30    16    20    1
@<TRIPOS>MOLECULE
*****
 27 30 0 0 0
SMALL
GASTEIGER

@<TRIPOS>ATOM
      1 C         142.1933  141.2085  166.8082 C.3     1  UNL1        0.1686
      2 C         141.8292  139.8494  167.3280 C.3     1  UNL1        0.0595
      3 C         142.1425  139.4808  168.7478 C.3     1  UNL1        0.0614
      4 C         142.6262  139.5494  170.1660 C.3     1  UNL1        0.0175
      5 C         143.2275  140.9060  170.3855 C.3     1  UNL1        0.0175
      6 C         143.1154  141.6758  169.1030 C.3     1  UNL1        0.0614
      7 C         142.8707  142.1990  167.7082 C.3     1  UNL1        0.0595
      8 N         142.4448  140.7950  168.0908 N.3     1  UNL1       -0.2713
      9 O         141.8801  141.5771  165.3882 O.3     1  UNL1       -0.4789
     10 C         139.4157  141.4351  164.5781 C.ar    1  UNL1        0.0870
     11 C         138.1163  142.1073  164.2470 C.ar    1  UNL1        0.0076
     12 C         137.9819  143.5939  164.3949 C.ar    1  UNL1        0.0003
     13 C         139.1470  144.4083  164.8739 C.ar    1  UNL1        0.0031
     14 C         140.4463  143.7360  165.2050 C.ar    1  UNL1        0.0370
     15 C         140.5807  142.2494  165.0571 C.ar    1  UNL1        0.1427
     16 N         140.6185  139.3762  163.5466 N.am    1  UNL1       -0.3252
     17 C         139.5500  139.9484  164.4303 C.2     1  UNL1        0.2457
     18 O         138.6159  139.0341  165.1660 O.2     1  UNL1       -0.2703
     19 H         140.7067  138.4005  163.4495 H       1  UNL1        0.1453
     20 H         141.2316  139.9763  163.0637 H       1  UNL1        0.1453
     21 C         142.1315  141.1635  166.6710 C.3     1  UNL1        0.0991
     22 C         143.2384  141.2849  165.6659 C.ar    1  UNL1       -0.0061
     23 C         143.8833  142.6163  165.4176 C.ar    1  UNL1       -0.0029
     24 C         144.9901  142.7377  164.4127 C.ar    1  UNL1       -0.0003
     25 C         145.4521  141.5278  163.6559 C.ar    1  UNL1       -0.0000
     26 C         144.8072  140.1964  163.9041 C.ar    1  UNL1       -0.0003
     27 C         143.7003  140.0751  164.9092 C.ar    1  UNL1       -0.0029
@<TRIPOS>BOND
     1    16    17   am
     2    17    18    2
     3    17    10    1
     4    10    11   ar
     5    11    12   ar
     6    12    13   ar
     7    13    14   ar
     8    14    15   ar
     9    15     9    1
    10     1     9    1
    11     1     2    1
    12     3     2    1
    13     3     4    1
    14     4     5    1
    15     6     5    1
    16     6     7    1
    17     6     8    1
    18     8    21    1
    19    21    22    1
    20    22    23   ar
    21    23    24   ar
    22    24    25   ar
    23    25    26   ar
    24    26    27   ar
    25    15    10   ar
    26     7     1    1
    27    27    22   ar
    28     8     3    1
    29    16    19    1
    30    16    20    1
@<TRIPOS>MOLECULE
*****
 27 30 0 0 0
SMALL
GASTEIGER

@<TRIPOS>ATOM
      1 C         140.4929  142.3109  165.0028 C.3     1  UNL1        0.1686
      2 C         139.9475  141.5308  163.8435 C.3     1  UNL1        0.0595
      3 C         138.8166  142.0875  163.0305 C.3     1  UNL1        0.0614
      4 C         137.7337  142.9946  162.5259 C.3     1  UNL1        0.0175
      5 C         137.7105  144.2168  163.3952 C.3     1  UNL1        0.0175
      6 C         138.7789  144.0651  164.4370 C.3     1  UNL1        0.0614
      7 C         139.9073  143.6478  165.3491 C.3     1  UNL1        0.0595
      8 N         139.4625  142.7491  164.2116 N.3     1  UNL1       -0.2713
      9 O         141.6240  141.7542  165.8158 O.3     1  UNL1       -0.4789
     10 C         143.5953  140.1538  165.2664 C.ar    1  UNL1        0.0870
     11 C         144.9293  139.9081  164.6260 C.ar    1  UNL1        0.0076
     12 C         145.6260  141.0171  163.8949 C.ar    1  UNL1        0.0003
     13 C         144.9886  142.3719  163.8040 C.ar    1  UNL1        0.0031
     14 C         143.6546  142.6176  164.4443 C.ar    1  UNL1        0.0370
     15 C         142.9580  141.5085  165.1755 C.ar    1  UNL1        0.1427
     16 N         143.0788  138.8940  167.4790 N.am    1  UNL1       -0.3252
     17 C         142.8987  139.0447  165.9975 C.2     1  UNL1        0.2457
     18 O         142.0220  138.0863  165.2472 O.2     1  UNL1       -0.2703
     19 H         142.6215  138.1661  167.9589 H       1  UNL1        0.1453
     20 H         143.6542  139.5230  167.9715 H       1  UNL1        0.1453
     21 C         140.5935  142.1924  165.0246 C.3     1  UNL1        0.0991
     22 C         140.3479  141.7204  166.4271 C.ar    1  UNL1       -0.0061
     23 C         139.6685  140.4049  166.6675 C.ar    1  UNL1       -0.0029
     24 C         139.4229  139.9329  168.0699 C.ar    1  UNL1       -0.0003
     25 C         139.8565  140.7765  169.2319 C.ar    1  UNL1       -0.0000
     26 C         140.5359  142.0921  168.9915 C.ar    1  UNL1       -0.0003
     27 C         140.7815  142.5640  167.5890 C.ar    1  UNL1       -0.0029
@<TRIPOS>BOND
     1    16    17   am
     2    17    18    2
     3    17    10    1
     4    10    11   ar
     5    11    12   ar
     6    12    13   ar
     7    13    14   ar
     8    14    15   ar
     9    15     9    1
    10     1     9    1
    11     1     2    1
    12     3     2    1
    13     3     4    1
    14     4     5    1
    15     6     5    1
    16     6     7    1
    17     6     8    1
    18     8    21    1
    19    21    22    1
    20    22    23   ar
    21    23    24   ar
    22    24    25   ar
    23    25    26   ar
    24    26    27   ar
    25    15    10   ar
    26     7     1    1
    27    27    22   ar
    28     8     3    1
    29    16    19    1
    30    16    20    1
