@<TRIPOS>MOLECULE
*****
 40 45 0 0 0
SMALL
GASTEIGER

@<TRIPOS>ATOM
      1 C         142.9208  137.9820  160.1405 C.2     1  UNL1        0.2495
      2 O         143.1434  136.5943  159.6160 O.2     1  UNL1       -0.2699
      3 N         142.7082  139.1194  159.1860 N.am    1  UNL1       -0.2674
      4 C         142.4746  140.5529  159.5607 C.3     1  UNL1        0.1185
      5 C         142.3139  141.3425  158.2955 C.3     1  UNL1        0.1288
      6 C         142.4482  140.3969  157.1388 C.3     1  UNL1        0.0554
      7 C         142.6919  139.0230  157.6892 C.3     1  UNL1        0.1540
      8 C         144.0572  139.1822  163.7486 C.ar    1  UNL1        0.1361
      9 C         144.0672  138.9321  162.2696 C.ar    1  UNL1        0.0411
     10 C         142.9108  138.2321  161.6194 C.ar    1  UNL1        0.0566
     11 C         141.7442  137.7823  162.4483 C.ar    1  UNL1        0.0044
     12 C         141.7342  138.0325  163.9273 C.ar    1  UNL1        0.0002
     13 C         142.8907  138.7324  164.5774 C.ar    1  UNL1        0.0274
     14 C         142.8807  138.9826  166.0563 C.3     1  UNL1        0.0952
     15 N         143.8430  138.2538  166.9468 N.3     1  UNL1       -0.3174
     16 H         143.6241  137.2576  166.9407 H       1  UNL1        0.1192
     17 H         143.7648  138.6133  167.8981 H       1  UNL1        0.1192
     18 C         145.6425  141.2342  163.9107 C.3     1  UNL1        0.2525
     19 O         145.2136  139.8822  164.3987 O.3     1  UNL1       -0.4717
     20 N         142.0629  142.8185  158.2031 N.ar    1  UNL1       -0.2307
     21 C         141.1659  143.5001  157.2128 C.ar    1  UNL1        0.1131
     22 C         141.2136  144.9748  157.4826 C.ar    1  UNL1        0.1005
     23 N         142.1400  145.2047  158.6397 N.ar    1  UNL1       -0.1332
     24 N         142.6650  143.8720  159.0851 N.ar    1  UNL1       -0.0641
     25 C         140.4660  146.0338  156.7278 C.3     1  UNL1        0.0437
     26 C         140.2106  146.7870  155.4560 C.3     1  UNL1        0.0064
     27 C         139.4267  147.1147  156.6922 C.3     1  UNL1        0.0064
     28 C         142.8853  137.7722  156.8841 C.2     1  UNL1        0.2406
     29 O         144.1327  137.5889  156.0712 O.2     1  UNL1       -0.2733
     30 N         141.8316  136.7047  156.8917 N.am    1  UNL1       -0.3043
     31 H         141.0129  136.8250  157.4252 H       1  UNL1        0.1494
     32 C         142.0250  135.4541  156.0866 C.3     1  UNL1        0.0760
     33 C         141.8516  134.6944  154.8048 C.3     1  UNL1        0.0259
     34 C         142.5335  134.0474  155.9738 C.3     1  UNL1        0.0419
     35 C         143.2208  132.8617  156.5836 C.ar    1  UNL1       -0.0209
     36 C         142.6554  131.4859  156.3903 C.ar    1  UNL1       -0.0042
     37 C         143.3426  130.3001  157.0000 C.ar    1  UNL1       -0.0003
     38 C         144.5953  130.4902  157.8030 C.ar    1  UNL1       -0.0000
     39 C         145.1607  131.8661  157.9963 C.ar    1  UNL1       -0.0003
     40 C         144.4734  133.0519  157.3865 C.ar    1  UNL1       -0.0042
@<TRIPOS>BOND
     1    18    19    1
     2    19     8    1
     3     8     9   ar
     4     9    10   ar
     5    10     1    1
     6     1     2    2
     7     1     3   am
     8     3     4    1
     9     4     5    1
    10     5    20    1
    11    20    21   ar
    12    21    22   ar
    13    22    25    1
    14    25    26    1
    15    26    27    1
    16    22    23   ar
    17    23    24   ar
    18     5     6    1
    19     6     7    1
    20     7    28    1
    21    28    29    2
    22    28    30   am
    23    32    30    1
    24    32    33    1
    25    33    34    1
    26    34    35    1
    27    35    36   ar
    28    36    37   ar
    29    37    38   ar
    30    38    39   ar
    31    39    40   ar
    32    10    11   ar
    33    11    12   ar
    34    12    13   ar
    35    13    14    1
    36    14    15    1
    37    13     8   ar
    38     7     3    1
    39    34    32    1
    40    40    35   ar
    41    24    20   ar
    42    27    25    1
    43    30    31    1
    44    15    16    1
    45    15    17    1
@<TRIPOS>MOLECULE
*****
 40 45 0 0 0
SMALL
GASTEIGER

@<TRIPOS>ATOM
      1 C         138.6074  144.8794  155.1988 C.2     1  UNL1        0.2495
      2 O         137.5421  144.2690  154.3371 O.2     1  UNL1       -0.2699
      3 N         139.1718  144.1067  156.3539 N.am    1  UNL1       -0.2674
      4 C         140.2351  144.5836  157.2984 C.3     1  UNL1        0.1185
      5 C         140.4925  143.4930  158.2956 C.3     1  UNL1        0.1288
      6 C         139.5883  142.3421  157.9675 C.3     1  UNL1        0.0554
      7 C         138.7720  142.7214  156.7675 C.3     1  UNL1        0.1540
      8 C         139.0289  148.8232  155.3376 C.ar    1  UNL1        0.1361
      9 C         138.5279  147.4400  155.6311 C.ar    1  UNL1        0.0411
     10 C         139.1083  146.2625  154.9054 C.ar    1  UNL1        0.0566
     11 C         140.1896  146.4681  153.8862 C.ar    1  UNL1        0.0044
     12 C         140.6904  147.8512  153.5928 C.ar    1  UNL1        0.0002
     13 C         140.1101  149.0288  154.3185 C.ar    1  UNL1        0.0274
     14 C         140.6110  150.4118  154.0251 C.3     1  UNL1        0.0952
     15 N         140.9338  151.3475  155.1522 N.3     1  UNL1       -0.3174
     16 H         140.0784  151.5793  155.6572 H       1  UNL1        0.1192
     17 H         141.3492  152.2004  154.7777 H       1  UNL1        0.1192
     18 C         138.2307  149.9350  157.5460 C.3     1  UNL1        0.2525
     19 O         138.4485  150.0007  156.0633 O.3     1  UNL1       -0.4717
     20 N         141.4807  143.5444  159.4229 N.ar    1  UNL1       -0.2307
     21 C         142.2879  142.3912  159.9411 C.ar    1  UNL1        0.1131
     22 C         143.1412  142.8921  161.0685 C.ar    1  UNL1        0.1005
     23 N         142.8613  144.3549  161.2471 N.ar    1  UNL1       -0.1332
     24 N         141.8350  144.7581  160.2300 N.ar    1  UNL1       -0.0641
     25 C         144.1051  142.0739  161.8755 C.3     1  UNL1        0.0437
     26 C         145.2986  141.9909  162.7803 C.3     1  UNL1        0.0064
     27 C         144.5811  140.7396  162.3687 C.3     1  UNL1        0.0064
     28 C         137.7376  141.8655  156.0985 C.2     1  UNL1        0.2406
     29 O         138.1332  140.5589  155.4768 O.2     1  UNL1       -0.2733
     30 N         136.3077  142.3161  156.0512 N.am    1  UNL1       -0.3043
     31 H         136.0481  143.1736  156.4592 H       1  UNL1        0.1494
     32 C         135.2734  141.4603  155.3822 C.3     1  UNL1        0.0760
     33 C         134.7533  140.7707  154.1557 C.3     1  UNL1        0.0259
     34 C         134.0018  140.6674  155.4499 C.3     1  UNL1        0.0419
     35 C         132.8339  140.1500  156.2361 C.ar    1  UNL1       -0.0209
     36 C         131.4590  140.6931  155.9819 C.ar    1  UNL1       -0.0042
     37 C         130.2910  140.1757  156.7680 C.ar    1  UNL1       -0.0003
     38 C         130.4978  139.1151  157.8084 C.ar    1  UNL1       -0.0000
     39 C         131.8728  138.5720  158.0627 C.ar    1  UNL1       -0.0003
     40 C         133.0408  139.0894  157.2765 C.ar    1  UNL1       -0.0042
@<TRIPOS>BOND
     1    18    19    1
     2    19     8    1
     3     8     9   ar
     4     9    10   ar
     5    10     1    1
     6     1     2    2
     7     1     3   am
     8     3     4    1
     9     4     5    1
    10     5    20    1
    11    20    21   ar
    12    21    22   ar
    13    22    25    1
    14    25    26    1
    15    26    27    1
    16    22    23   ar
    17    23    24   ar
    18     5     6    1
    19     6     7    1
    20     7    28    1
    21    28    29    2
    22    28    30   am
    23    32    30    1
    24    32    33    1
    25    33    34    1
    26    34    35    1
    27    35    36   ar
    28    36    37   ar
    29    37    38   ar
    30    38    39   ar
    31    39    40   ar
    32    10    11   ar
    33    11    12   ar
    34    12    13   ar
    35    13    14    1
    36    14    15    1
    37    13     8   ar
    38     7     3    1
    39    34    32    1
    40    40    35   ar
    41    24    20   ar
    42    27    25    1
    43    30    31    1
    44    15    16    1
    45    15    17    1
@<TRIPOS>MOLECULE
*****
 40 45 0 0 0
SMALL
GASTEIGER

@<TRIPOS>ATOM
      1 C         143.1711  137.6452  156.2098 C.2     1  UNL1        0.2495
      2 O         143.6192  138.4822  155.0485 O.2     1  UNL1       -0.2699
      3 N         143.0790  138.2504  157.5792 N.am    1  UNL1       -0.2674
      4 C         142.6493  137.5416  158.8294 C.3     1  UNL1        0.1185
      5 C         142.7052  138.5238  159.9617 C.3     1  UNL1        0.1288
      6 C         143.1695  139.8397  159.4114 C.3     1  UNL1        0.0554
      7 C         143.4006  139.6707  157.9389 C.3     1  UNL1        0.1540
      8 C         143.4037  133.6835  156.2369 C.ar    1  UNL1        0.1361
      9 C         143.7598  135.1257  156.4451 C.ar    1  UNL1        0.0411
     10 C         142.8150  136.2031  156.0017 C.ar    1  UNL1        0.0566
     11 C         141.5140  135.8382  155.3502 C.ar    1  UNL1        0.0044
     12 C         141.1579  134.3960  155.1421 C.ar    1  UNL1        0.0002
     13 C         142.1027  133.3187  155.5855 C.ar    1  UNL1        0.0274
     14 C         141.7467  131.8765  155.3774 C.3     1  UNL1        0.0952
     15 N         142.7525  130.9333  154.7870 N.3     1  UNL1       -0.3174
     16 H         142.9456  131.2024  153.8222 H       1  UNL1        0.1192
     17 H         142.3809  129.9836  154.8072 H       1  UNL1        0.1192
     18 C         145.0247  132.7045  158.0157 C.3     1  UNL1        0.2525
     19 O         144.3485  132.6061  156.6803 O.3     1  UNL1       -0.4717
     20 N         142.3578  138.2400  161.3931 N.ar    1  UNL1       -0.2307
     21 C         143.1146  138.7200  162.5959 C.ar    1  UNL1        0.1131
     22 C         142.4171  138.2029  163.8191 C.ar    1  UNL1        0.1005
     23 N         141.2293  137.4033  163.3722 N.ar    1  UNL1       -0.1332
     24 N         141.1926  137.4262  161.8728 N.ar    1  UNL1       -0.0641
     25 C         142.8343  138.4432  165.2397 C.3     1  UNL1        0.0437
     26 C         143.7568  138.1606  166.3883 C.3     1  UNL1        0.0064
     27 C         142.6343  139.1421  166.5518 C.3     1  UNL1        0.0064
     28 C         143.8706  140.7352  156.9924 C.2     1  UNL1        0.2406
     29 O         142.9378  141.8336  156.5759 O.2     1  UNL1       -0.2733
     30 N         145.2734  140.7014  156.4622 N.am    1  UNL1       -0.3043
     31 H         145.8856  139.9805  156.7355 H       1  UNL1        0.1494
     32 C         145.7434  141.7658  155.5157 C.3     1  UNL1        0.0760
     33 C         145.4457  142.9340  154.6230 C.3     1  UNL1        0.0259
     34 C         146.8550  142.4414  154.7689 C.3     1  UNL1        0.0419
     35 C         148.3105  142.5471  154.4219 C.ar    1  UNL1       -0.0209
     36 C         148.7549  143.4681  153.3246 C.ar    1  UNL1       -0.0042
     37 C         150.2103  143.5739  152.9775 C.ar    1  UNL1       -0.0003
     38 C         151.2215  142.7585  153.7278 C.ar    1  UNL1       -0.0000
     39 C         150.7771  141.8374  154.8251 C.ar    1  UNL1       -0.0003
     40 C         149.3215  141.7317  155.1722 C.ar    1  UNL1       -0.0042
@<TRIPOS>BOND
     1    18    19    1
     2    19     8    1
     3     8     9   ar
     4     9    10   ar
     5    10     1    1
     6     1     2    2
     7     1     3   am
     8     3     4    1
     9     4     5    1
    10     5    20    1
    11    20    21   ar
    12    21    22   ar
    13    22    25    1
    14    25    26    1
    15    26    27    1
    16    22    23   ar
    17    23    24   ar
    18     5     6    1
    19     6     7    1
    20     7    28    1
    21    28    29    2
    22    28    30   am
    23    32    30    1
    24    32    33    1
    25    33    34    1
    26    34    35    1
    27    35    36   ar
    28    36    37   ar
    29    37    38   ar
    30    38    39   ar
    31    39    40   ar
    32    10    11   ar
    33    11    12   ar
    34    12    13   ar
    35    13    14    1
    36    14    15    1
    37    13     8   ar
    38     7     3    1
    39    34    32    1
    40    40    35   ar
    41    24    20   ar
    42    27    25    1
    43    30    31    1
    44    15    16    1
    45    15    17    1
@<TRIPOS>MOLECULE
*****
 40 45 0 0 0
SMALL
GASTEIGER

@<TRIPOS>ATOM
      1 C         139.4728  140.9624  156.2696 C.2     1  UNL1        0.2495
      2 O         139.8876  140.0915  155.1208 O.2     1  UNL1       -0.2699
      3 N         139.2715  140.3636  157.6301 N.am    1  UNL1       -0.2674
      4 C         138.8597  141.1048  158.8675 C.3     1  UNL1        0.1185
      5 C         138.7803  140.1178  159.9942 C.3     1  UNL1        0.1288
      6 C         139.1430  138.7666  159.4532 C.3     1  UNL1        0.0554
      7 C         139.4466  138.9185  157.9921 C.3     1  UNL1        0.1540
      8 C         140.1780  144.8622  156.0593 C.ar    1  UNL1        0.1361
      9 C         140.3915  143.3926  156.2710 C.ar    1  UNL1        0.0411
     10 C         139.2594  142.4319  156.0579 C.ar    1  UNL1        0.0566
     11 C         137.9138  142.9408  155.6330 C.ar    1  UNL1        0.0044
     12 C         137.7004  144.4104  155.4213 C.ar    1  UNL1        0.0002
     13 C         138.8325  145.3711  155.6344 C.ar    1  UNL1        0.0274
     14 C         138.6190  146.8406  155.4227 C.3     1  UNL1        0.0952
     15 N         138.9200  147.8091  156.5279 N.3     1  UNL1       -0.3174
     16 H         138.2746  147.6527  157.3021 H       1  UNL1        0.1192
     17 H         138.8123  148.7629  156.1828 H       1  UNL1        0.1192
     18 C         142.0033  145.8822  157.6014 C.3     1  UNL1        0.2525
     19 O         141.3101  145.8229  156.2724 O.3     1  UNL1       -0.4717
     20 N         138.4042  140.4276  161.4129 N.ar    1  UNL1       -0.2307
     21 C         138.8300  139.6558  162.6266 C.ar    1  UNL1        0.1131
     22 C         138.2253  140.3149  163.8307 C.ar    1  UNL1        0.1005
     23 N         137.4257  141.4940  163.3612 N.ar    1  UNL1       -0.1332
     24 N         137.5363  141.5637  161.8668 N.ar    1  UNL1       -0.0641
     25 C         138.3910  139.8725  165.2543 C.3     1  UNL1        0.0437
     26 C         137.9368  139.0416  166.4177 C.3     1  UNL1        0.0064
     27 C         139.1321  139.9371  166.5568 C.3     1  UNL1        0.0064
     28 C         139.8538  137.8185  157.0572 C.2     1  UNL1        0.2406
     29 O         138.8417  137.2041  156.1360 O.2     1  UNL1       -0.2733
     30 N         141.2728  137.3327  157.0433 N.am    1  UNL1       -0.3043
     31 H         141.9371  137.7358  157.6479 H       1  UNL1        0.1494
     32 C         141.6800  136.2327  156.1084 C.3     1  UNL1        0.0760
     33 C         141.7801  135.6807  154.7172 C.3     1  UNL1        0.0259
     34 C         142.2850  134.8792  155.8802 C.3     1  UNL1        0.0419
     35 C         142.9260  133.6351  156.4199 C.ar    1  UNL1       -0.0209
     36 C         142.3526  132.2901  156.0846 C.ar    1  UNL1       -0.0042
     37 C         142.9935  131.0459  156.6242 C.ar    1  UNL1       -0.0003
     38 C         144.2077  131.1466  157.4992 C.ar    1  UNL1       -0.0000
     39 C         144.7811  132.4916  157.8345 C.ar    1  UNL1       -0.0003
     40 C         144.1402  133.7358  157.2949 C.ar    1  UNL1       -0.0042
@<TRIPOS>BOND
     1    18    19    1
     2    19     8    1
     3     8     9   ar
     4     9    10   ar
     5    10     1    1
     6     1     2    2
     7     1     3   am
     8     3     4    1
     9     4     5    1
    10     5    20    1
    11    20    21   ar
    12    21    22   ar
    13    22    25    1
    14    25    26    1
    15    26    27    1
    16    22    23   ar
    17    23    24   ar
    18     5     6    1
    19     6     7    1
    20     7    28    1
    21    28    29    2
    22    28    30   am
    23    32    30    1
    24    32    33    1
    25    33    34    1
    26    34    35    1
    27    35    36   ar
    28    36    37   ar
    29    37    38   ar
    30    38    39   ar
    31    39    40   ar
    32    10    11   ar
    33    11    12   ar
    34    12    13   ar
    35    13    14    1
    36    14    15    1
    37    13     8   ar
    38     7     3    1
    39    34    32    1
    40    40    35   ar
    41    24    20   ar
    42    27    25    1
    43    30    31    1
    44    15    16    1
    45    15    17    1
@<TRIPOS>MOLECULE
*****
 40 45 0 0 0
SMALL
GASTEIGER

@<TRIPOS>ATOM
      1 C         142.8884  138.9636  158.8585 C.2     1  UNL1        0.2495
      2 O         143.2901  140.3692  158.5223 O.2     1  UNL1       -0.2699
      3 N         142.9260  137.8997  157.8017 N.am    1  UNL1       -0.2674
      4 C         142.5554  136.4583  157.9882 C.3     1  UNL1        0.1185
      5 C         142.7412  135.7582  156.6747 C.3     1  UNL1        0.1288
      6 C         143.2267  136.7670  155.6764 C.3     1  UNL1        0.0554
      7 C         143.3409  138.0905  156.3730 C.3     1  UNL1        0.1540
      8 C         140.5592  138.0320  161.9337 C.ar    1  UNL1        0.1361
      9 C         140.9984  138.3737  160.5407 C.ar    1  UNL1        0.0411
     10 C         142.4491  138.6219  160.2514 C.ar    1  UNL1        0.0566
     11 C         143.4607  138.5284  161.3552 C.ar    1  UNL1        0.0044
     12 C         143.0214  138.1868  162.7481 C.ar    1  UNL1        0.0002
     13 C         141.5707  137.9385  163.0374 C.ar    1  UNL1        0.0274
     14 C         141.1314  137.5968  164.4303 C.3     1  UNL1        0.0952
     15 N         140.2375  138.5347  165.1861 N.3     1  UNL1       -0.3174
     16 H         140.7373  139.4040  165.3732 H       1  UNL1        0.1192
     17 H         139.9618  138.1043  166.0688 H       1  UNL1        0.1192
     18 C         138.1481  138.9345  162.2834 C.3     1  UNL1        0.2525
     19 O         139.1084  137.7837  162.2230 O.3     1  UNL1       -0.4717
     20 N         142.4863  134.3045  156.4065 N.ar    1  UNL1       -0.2307
     21 C         141.7109  133.7438  155.2514 C.ar    1  UNL1        0.1131
     22 C         141.7074  132.2491  155.3774 C.ar    1  UNL1        0.1005
     23 N         142.4806  131.8860  156.6105 N.ar    1  UNL1       -0.1332
     24 N         142.9619  133.1564  157.2466 N.ar    1  UNL1       -0.0641
     25 C         141.0468  131.2864  154.4357 C.3     1  UNL1        0.0437
     26 C         139.8046  130.7397  153.7969 C.3     1  UNL1        0.0064
     27 C         141.1446  130.1658  153.4435 C.3     1  UNL1        0.0064
     28 C         143.7910  139.3787  155.7501 C.2     1  UNL1        0.2406
     29 O         142.9254  140.0632  154.7340 O.2     1  UNL1       -0.2733
     30 N         145.1067  139.9825  156.1431 N.am    1  UNL1       -0.3043
     31 H         145.6748  139.5333  156.8099 H       1  UNL1        0.1494
     32 C         145.5567  141.2706  155.5202 C.3     1  UNL1        0.0760
     33 C         145.2446  142.6483  155.0153 C.3     1  UNL1        0.0259
     34 C         146.6484  142.1243  154.9461 C.3     1  UNL1        0.0419
     35 C         148.0892  142.3146  154.5748 C.ar    1  UNL1       -0.0209
     36 C         148.4561  143.2081  153.4271 C.ar    1  UNL1       -0.0042
     37 C         149.8968  143.3985  153.0556 C.ar    1  UNL1       -0.0003
     38 C         150.9707  142.6955  153.8319 C.ar    1  UNL1       -0.0000
     39 C         150.6038  141.8020  154.9796 C.ar    1  UNL1       -0.0003
     40 C         149.1630  141.6116  155.3510 C.ar    1  UNL1       -0.0042
@<TRIPOS>BOND
     1    18    19    1
     2    19     8    1
     3     8     9   ar
     4     9    10   ar
     5    10     1    1
     6     1     2    2
     7     1     3   am
     8     3     4    1
     9     4     5    1
    10     5    20    1
    11    20    21   ar
    12    21    22   ar
    13    22    25    1
    14    25    26    1
    15    26    27    1
    16    22    23   ar
    17    23    24   ar
    18     5     6    1
    19     6     7    1
    20     7    28    1
    21    28    29    2
    22    28    30   am
    23    32    30    1
    24    32    33    1
    25    33    34    1
    26    34    35    1
    27    35    36   ar
    28    36    37   ar
    29    37    38   ar
    30    38    39   ar
    31    39    40   ar
    32    10    11   ar
    33    11    12   ar
    34    12    13   ar
    35    13    14    1
    36    14    15    1
    37    13     8   ar
    38     7     3    1
    39    34    32    1
    40    40    35   ar
    41    24    20   ar
    42    27    25    1
    43    30    31    1
    44    15    16    1
    45    15    17    1
@<TRIPOS>MOLECULE
*****
 40 45 0 0 0
SMALL
GASTEIGER

@<TRIPOS>ATOM
      1 C         140.1886  139.2376  159.9393 C.2     1  UNL1        0.2495
      2 O         139.6453  138.5221  161.1406 O.2     1  UNL1       -0.2699
      3 N         140.1687  140.7366  159.8866 N.am    1  UNL1       -0.2674
      4 C         140.6737  141.5859  158.7581 C.3     1  UNL1        0.1185
      5 C         140.4574  143.0236  159.1272 C.3     1  UNL1        0.1288
      6 C         139.8186  143.0629  160.4838 C.3     1  UNL1        0.0554
      7 C         139.6402  141.6494  160.9532 C.3     1  UNL1        0.1540
      8 C         140.4069  137.1736  156.5567 C.ar    1  UNL1        0.1361
      9 C         139.8437  137.9571  157.7052 C.ar    1  UNL1        0.0411
     10 C         140.7517  138.4542  158.7908 C.ar    1  UNL1        0.0566
     11 C         142.2228  138.1679  158.7279 C.ar    1  UNL1        0.0044
     12 C         142.7859  137.3845  157.5794 C.ar    1  UNL1        0.0002
     13 C         141.8780  136.8873  156.4938 C.ar    1  UNL1        0.0274
     14 C         142.4411  136.1039  155.3453 C.3     1  UNL1        0.0952
     15 N         143.8824  136.2653  154.9623 N.3     1  UNL1       -0.3174
     16 H         144.0381  137.2119  154.6159 H       1  UNL1        0.1192
     17 H         144.1175  135.5930  154.2321 H       1  UNL1        0.1192
     18 C         138.5169  137.6106  154.8284 C.3     1  UNL1        0.2525
     19 O         139.4990  136.6764  155.4711 O.3     1  UNL1       -0.4717
     20 N         140.8167  144.2132  158.2871 N.ar    1  UNL1       -0.2307
     21 C         139.9562  144.8379  157.2292 C.ar    1  UNL1        0.1131
     22 C         140.7074  145.9977  156.6457 C.ar    1  UNL1        0.1005
     23 N         142.0322  146.0900  157.3431 N.ar    1  UNL1       -0.1332
     24 N         142.0998  144.9871  158.3576 N.ar    1  UNL1       -0.0641
     25 C         140.2194  146.9059  155.5562 C.3     1  UNL1        0.0437
     26 C         140.3412  147.4432  154.1611 C.3     1  UNL1        0.0064
     27 C         139.2523  147.9417  155.0643 C.3     1  UNL1        0.0064
     28 C         139.0389  141.2235  162.2597 C.2     1  UNL1        0.2406
     29 O         137.5587  141.3353  162.4760 O.2     1  UNL1       -0.2733
     30 N         139.9175  140.6858  163.3500 N.am    1  UNL1       -0.3043
     31 H         140.8890  140.6124  163.2082 H       1  UNL1        0.1494
     32 C         139.3162  140.2600  164.6565 C.3     1  UNL1        0.0760
     33 C         138.1290  139.8076  165.4541 C.3     1  UNL1        0.0259
     34 C         139.4617  139.9747  166.1219 C.3     1  UNL1        0.0419
     35 C         140.3151  139.9064  167.3535 C.ar    1  UNL1       -0.0209
     36 C         139.6939  140.0844  168.7072 C.ar    1  UNL1       -0.0042
     37 C         140.5473  140.0162  169.9389 C.ar    1  UNL1       -0.0003
     38 C         142.0219  139.7699  169.8170 C.ar    1  UNL1       -0.0000
     39 C         142.6432  139.5919  168.4633 C.ar    1  UNL1       -0.0003
     40 C         141.7897  139.6602  167.2315 C.ar    1  UNL1       -0.0042
@<TRIPOS>BOND
     1    18    19    1
     2    19     8    1
     3     8     9   ar
     4     9    10   ar
     5    10     1    1
     6     1     2    2
     7     1     3   am
     8     3     4    1
     9     4     5    1
    10     5    20    1
    11    20    21   ar
    12    21    22   ar
    13    22    25    1
    14    25    26    1
    15    26    27    1
    16    22    23   ar
    17    23    24   ar
    18     5     6    1
    19     6     7    1
    20     7    28    1
    21    28    29    2
    22    28    30   am
    23    32    30    1
    24    32    33    1
    25    33    34    1
    26    34    35    1
    27    35    36   ar
    28    36    37   ar
    29    37    38   ar
    30    38    39   ar
    31    39    40   ar
    32    10    11   ar
    33    11    12   ar
    34    12    13   ar
    35    13    14    1
    36    14    15    1
    37    13     8   ar
    38     7     3    1
    39    34    32    1
    40    40    35   ar
    41    24    20   ar
    42    27    25    1
    43    30    31    1
    44    15    16    1
    45    15    17    1
@<TRIPOS>MOLECULE
*****
 40 45 0 0 0
SMALL
GASTEIGER

@<TRIPOS>ATOM
      1 C         140.7422  140.8094  157.0312 C.2     1  UNL1        0.2495
      2 O         141.4263  140.0247  155.9512 O.2     1  UNL1       -0.2699
      3 N         140.4460  140.1655  158.3531 N.am    1  UNL1       -0.2674
      4 C         139.7713  140.8207  159.5216 C.3     1  UNL1        0.1185
      5 C         139.6808  139.8134  160.6294 C.3     1  UNL1        0.1288
      6 C         140.2996  138.5356  160.1455 C.3     1  UNL1        0.0554
      7 C         140.7725  138.7532  158.7387 C.3     1  UNL1        0.1540
      8 C         138.5996  143.9945  156.0239 C.ar    1  UNL1        0.1361
      9 C         138.9874  142.5658  156.2659 C.ar    1  UNL1        0.0411
     10 C         140.3544  142.2381  156.7892 C.ar    1  UNL1        0.0566
     11 C         141.3336  143.3390  157.0705 C.ar    1  UNL1        0.0044
     12 C         140.9458  144.7677  156.8285 C.ar    1  UNL1        0.0002
     13 C         139.5788  145.0954  156.3053 C.ar    1  UNL1        0.0274
     14 C         139.1910  146.5240  156.0633 C.3     1  UNL1        0.0952
     15 N         138.2586  146.8681  154.9397 N.3     1  UNL1       -0.3174
     16 H         138.7090  146.6602  154.0485 H       1  UNL1        0.1192
     17 H         138.0284  147.8609  154.9809 H       1  UNL1        0.1192
     18 C         136.4029  143.2553  154.8500 C.3     1  UNL1        0.2525
     19 O         137.2326  144.3223  155.5007 O.3     1  UNL1       -0.4717
     20 N         139.0774  140.0436  161.9832 N.ar    1  UNL1       -0.2307
     21 C         139.2190  139.1450  163.1759 C.ar    1  UNL1        0.1131
     22 C         138.4556  139.7589  164.3119 C.ar    1  UNL1        0.1005
     23 N         137.8422  141.0368  163.8213 N.ar    1  UNL1       -0.1332
     24 N         138.2265  141.2128  162.3820 N.ar    1  UNL1       -0.0641
     25 C         138.3280  139.1939  165.6956 C.3     1  UNL1        0.0437
     26 C         137.8617  138.1056  166.6165 C.3     1  UNL1        0.0064
     27 C         138.5733  139.3038  167.1713 C.3     1  UNL1        0.0064
     28 C         141.4526  137.7368  157.8701 C.2     1  UNL1        0.2406
     29 O         142.9028  137.4178  158.0836 O.2     1  UNL1       -0.2733
     30 N         140.6828  137.0394  156.7880 N.am    1  UNL1       -0.3043
     31 H         139.7310  137.2488  156.6478 H       1  UNL1        0.1494
     32 C         141.3628  136.0231  155.9194 C.3     1  UNL1        0.0760
     33 C         141.7273  135.5151  154.5558 C.3     1  UNL1        0.0259
     34 C         142.1764  134.7709  155.7784 C.3     1  UNL1        0.0419
     35 C         142.9054  133.6181  156.4027 C.ar    1  UNL1       -0.0209
     36 C         144.0579  133.8725  157.3284 C.ar    1  UNL1       -0.0042
     37 C         144.7869  132.7198  157.9528 C.ar    1  UNL1       -0.0003
     38 C         144.3635  131.3127  157.6514 C.ar    1  UNL1       -0.0000
     39 C         143.2109  131.0583  156.7256 C.ar    1  UNL1       -0.0003
     40 C         142.4818  132.2111  156.1013 C.ar    1  UNL1       -0.0042
@<TRIPOS>BOND
     1    18    19    1
     2    19     8    1
     3     8     9   ar
     4     9    10   ar
     5    10     1    1
     6     1     2    2
     7     1     3   am
     8     3     4    1
     9     4     5    1
    10     5    20    1
    11    20    21   ar
    12    21    22   ar
    13    22    25    1
    14    25    26    1
    15    26    27    1
    16    22    23   ar
    17    23    24   ar
    18     5     6    1
    19     6     7    1
    20     7    28    1
    21    28    29    2
    22    28    30   am
    23    32    30    1
    24    32    33    1
    25    33    34    1
    26    34    35    1
    27    35    36   ar
    28    36    37   ar
    29    37    38   ar
    30    38    39   ar
    31    39    40   ar
    32    10    11   ar
    33    11    12   ar
    34    12    13   ar
    35    13    14    1
    36    14    15    1
    37    13     8   ar
    38     7     3    1
    39    34    32    1
    40    40    35   ar
    41    24    20   ar
    42    27    25    1
    43    30    31    1
    44    15    16    1
    45    15    17    1
@<TRIPOS>MOLECULE
*****
 40 45 0 0 0
SMALL
GASTEIGER

@<TRIPOS>ATOM
      1 C         142.3458  138.9396  158.2225 C.2     1  UNL1        0.2495
      2 O         142.6588  140.3612  157.8603 O.2     1  UNL1       -0.2699
      3 N         142.8593  137.8179  157.3692 N.am    1  UNL1       -0.2674
      4 C         142.6289  136.3544  157.6044 C.3     1  UNL1        0.1185
      5 C         143.3205  135.5947  156.5115 C.3     1  UNL1        0.1288
      6 C         143.9783  136.5886  155.6007 C.3     1  UNL1        0.0554
      7 C         143.6932  137.9626  156.1308 C.3     1  UNL1        0.1540
      8 C         141.3633  138.0601  161.9656 C.ar    1  UNL1        0.1361
      9 C         142.1898  138.3600  160.7502 C.ar    1  UNL1        0.0411
     10 C         141.5195  138.6397  159.4378 C.ar    1  UNL1        0.0566
     11 C         140.0227  138.6196  159.3408 C.ar    1  UNL1        0.0044
     12 C         139.1963  138.3198  160.5562 C.ar    1  UNL1        0.0002
     13 C         139.8666  138.0400  161.8686 C.ar    1  UNL1        0.0274
     14 C         139.0403  137.7402  163.0840 C.3     1  UNL1        0.0952
     15 N         138.6206  138.8525  163.9987 N.3     1  UNL1       -0.3174
     16 H         139.4445  139.2531  164.4471 H       1  UNL1        0.1192
     17 H         137.9896  138.4866  164.7116 H       1  UNL1        0.1192
     18 C         143.1512  138.6615  163.7522 C.3     1  UNL1        0.2525
     19 O         142.0337  137.7804  163.2781 O.3     1  UNL1       -0.4717
     20 N         143.3492  134.1030  156.3565 N.ar    1  UNL1       -0.2307
     21 C         143.7594  133.3523  155.1244 C.ar    1  UNL1        0.1131
     22 C         143.6365  131.8855  155.4129 C.ar    1  UNL1        0.1005
     23 N         143.1504  131.7296  156.8233 N.ar    1  UNL1       -0.1332
     24 N         142.9728  133.1002  157.4066 N.ar    1  UNL1       -0.0641
     25 C         143.9455  130.7703  154.4585 C.3     1  UNL1        0.0437
     26 C         144.5228  129.4119  154.1909 C.3     1  UNL1        0.0064
     27 C         143.9033  130.1971  153.0730 C.3     1  UNL1        0.0064
     28 C         144.1602  139.2544  155.5283 C.2     1  UNL1        0.2406
     29 O         143.5072  139.7814  154.2848 O.2     1  UNL1       -0.2733
     30 N         145.2800  140.0195  156.1691 N.am    1  UNL1       -0.3043
     31 H         145.7086  139.6738  156.9852 H       1  UNL1        0.1494
     32 C         145.7469  141.3113  155.5665 C.3     1  UNL1        0.0760
     33 C         145.4574  142.7086  155.1039 C.3     1  UNL1        0.0259
     34 C         146.8451  142.1517  154.9855 C.3     1  UNL1        0.0419
     35 C         148.2804  142.3154  154.5817 C.ar    1  UNL1       -0.0209
     36 C         149.3588  141.5970  155.3373 C.ar    1  UNL1       -0.0042
     37 C         150.7941  141.7607  154.9335 C.ar    1  UNL1       -0.0003
     38 C         151.1511  142.6429  153.7741 C.ar    1  UNL1       -0.0000
     39 C         150.0728  143.3614  153.0184 C.ar    1  UNL1       -0.0003
     40 C         148.6374  143.1977  153.4222 C.ar    1  UNL1       -0.0042
@<TRIPOS>BOND
     1    18    19    1
     2    19     8    1
     3     8     9   ar
     4     9    10   ar
     5    10     1    1
     6     1     2    2
     7     1     3   am
     8     3     4    1
     9     4     5    1
    10     5    20    1
    11    20    21   ar
    12    21    22   ar
    13    22    25    1
    14    25    26    1
    15    26    27    1
    16    22    23   ar
    17    23    24   ar
    18     5     6    1
    19     6     7    1
    20     7    28    1
    21    28    29    2
    22    28    30   am
    23    32    30    1
    24    32    33    1
    25    33    34    1
    26    34    35    1
    27    35    36   ar
    28    36    37   ar
    29    37    38   ar
    30    38    39   ar
    31    39    40   ar
    32    10    11   ar
    33    11    12   ar
    34    12    13   ar
    35    13    14    1
    36    14    15    1
    37    13     8   ar
    38     7     3    1
    39    34    32    1
    40    40    35   ar
    41    24    20   ar
    42    27    25    1
    43    30    31    1
    44    15    16    1
    45    15    17    1
@<TRIPOS>MOLECULE
*****
 40 45 0 0 0
SMALL
GASTEIGER

@<TRIPOS>ATOM
      1 C         144.4002  141.6127  158.2709 C.2     1  UNL1        0.2495
      2 O         144.6654  142.3874  159.5277 O.2     1  UNL1       -0.2699
      3 N         143.7241  140.2756  158.3427 N.am    1  UNL1       -0.2674
      4 C         143.3947  139.3904  157.1774 C.3     1  UNL1        0.1185
      5 C         142.7258  138.1567  157.7068 C.3     1  UNL1        0.1288
      6 C         142.6417  138.2793  159.1994 C.3     1  UNL1        0.0554
      7 C         143.2587  139.5888  159.5924 C.3     1  UNL1        0.1540
      8 C         146.6652  142.7195  155.2058 C.ar    1  UNL1        0.1361
      9 C         146.2544  142.1571  156.5344 C.ar    1  UNL1        0.0411
     10 C         144.8110  142.1750  156.9424 C.ar    1  UNL1        0.0566
     11 C         143.7785  142.7553  156.0219 C.ar    1  UNL1        0.0044
     12 C         144.1894  143.3177  154.6934 C.ar    1  UNL1        0.0002
     13 C         145.6327  143.2997  154.2854 C.ar    1  UNL1        0.0274
     14 C         146.0435  143.8621  152.9569 C.3     1  UNL1        0.0952
     15 N         145.9330  145.3357  152.6997 N.3     1  UNL1       -0.3174
     16 H         144.9502  145.6089  152.7041 H       1  UNL1        0.1192
     17 H         146.3425  145.5540  151.7913 H       1  UNL1        0.1192
     18 C         149.0418  141.6856  155.3867 C.3     1  UNL1        0.2525
     19 O         148.1085  142.7015  154.7977 O.3     1  UNL1       -0.4717
     20 N         142.2283  137.0029  156.8875 N.ar    1  UNL1       -0.2307
     21 C         142.8688  135.6501  156.7894 C.ar    1  UNL1        0.1131
     22 C         142.0392  134.8105  155.8637 C.ar    1  UNL1        0.1005
     23 N         140.8859  135.6444  155.3898 N.ar    1  UNL1       -0.1332
     24 N         141.0027  136.9994  156.0225 N.ar    1  UNL1       -0.0641
     25 C         142.3146  133.3870  155.4794 C.3     1  UNL1        0.0437
     26 C         143.1554  132.3754  154.7585 C.3     1  UNL1        0.0064
     27 C         141.9507  131.9328  155.5349 C.3     1  UNL1        0.0064
     28 C         143.3877  140.1186  160.9898 C.2     1  UNL1        0.2406
     29 O         142.1627  140.5279  161.7528 O.2     1  UNL1       -0.2733
     30 N         144.7415  140.2392  161.6244 N.am    1  UNL1       -0.3043
     31 H         145.5455  139.9707  161.1237 H       1  UNL1        0.1494
     32 C         144.8704  140.7690  163.0217 C.3     1  UNL1        0.0760
     33 C         145.6704  141.4797  164.0729 C.3     1  UNL1        0.0259
     34 C         144.2938  140.9759  164.3909 C.3     1  UNL1        0.0419
     35 C         143.1661  140.8045  165.3650 C.ar    1  UNL1       -0.0209
     36 C         142.9458  141.8229  166.4440 C.ar    1  UNL1       -0.0042
     37 C         141.8182  141.6516  167.4181 C.ar    1  UNL1       -0.0003
     38 C         140.9107  140.4618  167.3133 C.ar    1  UNL1       -0.0000
     39 C         141.1309  139.4433  166.2342 C.ar    1  UNL1       -0.0003
     40 C         142.2587  139.6147  165.2601 C.ar    1  UNL1       -0.0042
@<TRIPOS>BOND
     1    18    19    1
     2    19     8    1
     3     8     9   ar
     4     9    10   ar
     5    10     1    1
     6     1     2    2
     7     1     3   am
     8     3     4    1
     9     4     5    1
    10     5    20    1
    11    20    21   ar
    12    21    22   ar
    13    22    25    1
    14    25    26    1
    15    26    27    1
    16    22    23   ar
    17    23    24   ar
    18     5     6    1
    19     6     7    1
    20     7    28    1
    21    28    29    2
    22    28    30   am
    23    32    30    1
    24    32    33    1
    25    33    34    1
    26    34    35    1
    27    35    36   ar
    28    36    37   ar
    29    37    38   ar
    30    38    39   ar
    31    39    40   ar
    32    10    11   ar
    33    11    12   ar
    34    12    13   ar
    35    13    14    1
    36    14    15    1
    37    13     8   ar
    38     7     3    1
    39    34    32    1
    40    40    35   ar
    41    24    20   ar
    42    27    25    1
    43    30    31    1
    44    15    16    1
    45    15    17    1
