@<TRIPOS>MOLECULE
*****
 29 31 0 0 0
SMALL
GASTEIGER

@<TRIPOS>ATOM
      1 C         144.4609  139.1616  164.9175 C.3     1  UNL1        0.0188
      2 C         143.8184  139.6077  163.6376 C.3     1  UNL1        0.0736
      3 C         142.7892  138.7419  162.9735 C.3     1  UNL1        0.0882
      4 N         142.1467  139.1880  161.6936 N.3     1  UNL1       -0.2700
      5 C         142.5334  140.5000  161.0778 C.3     1  UNL1        0.0897
      6 C         143.5625  141.3658  161.7420 C.3     1  UNL1        0.0896
      7 N         144.2050  140.9197  163.0219 N.3     1  UNL1       -0.2711
      8 C         141.1175  138.3221  161.0295 C.3     1  UNL1        0.0769
      9 C         139.6684  138.4708  161.3874 C.3     1  UNL1        0.0437
     10 C         139.2538  138.5292  162.8277 C.ar    1  UNL1       -0.0204
     11 C         138.7877  139.8252  163.4220 C.ar    1  UNL1        0.0021
     12 C         138.3731  139.8836  164.8624 C.ar    1  UNL1        0.0749
     13 C         138.4246  138.6461  165.7085 C.ar    1  UNL1        0.2900
     14 C         138.8908  137.3501  165.1142 C.ar    1  UNL1        0.0749
     15 C         139.3054  137.2917  163.6739 C.ar    1  UNL1        0.0021
     16 N         138.0100  138.7046  167.1488 N.pl3   1  UNL1        0.0809
     17 O         136.8211  137.9203  167.6195 O.2     1  UNL1        0.0415
     18 O         138.7843  139.5473  168.1186 O.co2   1  UNL1       -0.5760
     19 C         145.2343  141.7856  163.6860 C.3     1  UNL1        0.0768
     20 C         144.8057  142.8742  164.6247 C.3     1  UNL1        0.0437
     21 C         143.3883  143.3649  164.6071 C.ar    1  UNL1       -0.0204
     22 C         143.0185  144.5598  163.7792 C.ar    1  UNL1        0.0021
     23 C         141.6012  145.0504  163.7616 C.ar    1  UNL1        0.0749
     24 C         140.5536  144.3462  164.5719 C.ar    1  UNL1        0.2900
     25 C         140.9234  143.1513  165.3998 C.ar    1  UNL1        0.0749
     26 C         142.3407  142.6606  165.4174 C.ar    1  UNL1        0.0021
     27 N         139.1362  144.8368  164.5543 N.pl3   1  UNL1        0.0809
     28 O         138.4666  145.2414  165.8341 O.2     1  UNL1        0.0415
     29 O         138.3884  144.9229  163.2568 O.co2   1  UNL1       -0.5760
@<TRIPOS>UNITY_ATOM_ATTR
16 1
charge 1
18 1
charge -1
27 1
charge 1
29 1
charge -1
@<TRIPOS>BOND
     1     1     2    1
     2     2     3    1
     3     3     4    1
     4     4     8    1
     5     8     9    1
     6     9    10    1
     7    10    11   ar
     8    11    12   ar
     9    12    13   ar
    10    13    16    1
    11    16    17    2
    12    16    18    1
    13    13    14   ar
    14    14    15   ar
    15     4     5    1
    16     5     6    1
    17     6     7    1
    18     7    19    1
    19    19    20    1
    20    20    21    1
    21    21    22   ar
    22    22    23   ar
    23    23    24   ar
    24    24    27    1
    25    27    28    2
    26    27    29    1
    27    24    25   ar
    28    25    26   ar
    29     7     2    1
    30    26    21   ar
    31    15    10   ar
@<TRIPOS>MOLECULE
*****
 29 31 0 0 0
SMALL
GASTEIGER

@<TRIPOS>ATOM
      1 C         144.5518  142.4519  161.0775 C.3     1  UNL1        0.0188
      2 C         144.0347  141.2431  161.7995 C.3     1  UNL1        0.0736
      3 C         143.0460  140.3354  161.1299 C.3     1  UNL1        0.0882
      4 N         142.5289  139.1266  161.8519 N.3     1  UNL1       -0.2700
      5 C         143.0004  138.8254  163.2436 C.3     1  UNL1        0.0897
      6 C         143.9891  139.7331  163.9133 C.3     1  UNL1        0.0896
      7 N         144.5063  140.9419  163.1912 N.3     1  UNL1       -0.2711
      8 C         141.5401  138.2189  161.1821 C.3     1  UNL1        0.0769
      9 C         140.0708  138.4044  161.4201 C.3     1  UNL1        0.0437
     10 C         139.5390  138.4589  162.8216 C.ar    1  UNL1       -0.0204
     11 C         139.6475  137.2569  163.7122 C.ar    1  UNL1        0.0021
     12 C         139.1157  137.3114  165.1138 C.ar    1  UNL1        0.0749
     13 C         138.4755  138.5681  165.6246 C.ar    1  UNL1        0.2900
     14 C         138.3670  139.7701  164.7340 C.ar    1  UNL1        0.0749
     15 C         138.8987  139.7156  163.3325 C.ar    1  UNL1        0.0021
     16 N         137.9437  138.6226  167.0261 N.pl3   1  UNL1        0.0809
     17 O         136.7011  137.8637  167.3869 O.2     1  UNL1        0.0415
     18 O         138.6545  139.4360  168.0669 O.co2   1  UNL1       -0.5760
     19 C         145.4950  141.8496  163.8610 C.3     1  UNL1        0.0768
     20 C         145.0138  142.9521  164.7571 C.3     1  UNL1        0.0437
     21 C         143.5945  143.4287  164.6640 C.ar    1  UNL1       -0.0204
     22 C         143.2579  144.6217  163.8193 C.ar    1  UNL1        0.0021
     23 C         141.8387  145.0983  163.7262 C.ar    1  UNL1        0.0749
     24 C         140.7562  144.3820  164.4777 C.ar    1  UNL1        0.2900
     25 C         141.0928  143.1890  165.3224 C.ar    1  UNL1        0.0749
     26 C         142.5120  142.7124  165.4155 C.ar    1  UNL1        0.0021
     27 N         139.3369  144.8586  164.3846 N.pl3   1  UNL1        0.0809
     28 O         138.5628  145.1580  165.6341 O.2     1  UNL1        0.0415
     29 O         138.6918  145.0357  163.0421 O.co2   1  UNL1       -0.5760
@<TRIPOS>UNITY_ATOM_ATTR
16 1
charge 1
18 1
charge -1
27 1
charge 1
29 1
charge -1
@<TRIPOS>BOND
     1     1     2    1
     2     2     3    1
     3     3     4    1
     4     4     8    1
     5     8     9    1
     6     9    10    1
     7    10    11   ar
     8    11    12   ar
     9    12    13   ar
    10    13    16    1
    11    16    17    2
    12    16    18    1
    13    13    14   ar
    14    14    15   ar
    15     4     5    1
    16     5     6    1
    17     6     7    1
    18     7    19    1
    19    19    20    1
    20    20    21    1
    21    21    22   ar
    22    22    23   ar
    23    23    24   ar
    24    24    27    1
    25    27    28    2
    26    27    29    1
    27    24    25   ar
    28    25    26   ar
    29     7     2    1
    30    26    21   ar
    31    15    10   ar
@<TRIPOS>MOLECULE
*****
 29 31 0 0 0
SMALL
GASTEIGER

@<TRIPOS>ATOM
      1 C         138.4476  137.9381  162.3913 C.3     1  UNL1        0.0188
      2 C         139.8275  137.9915  162.9770 C.3     1  UNL1        0.0736
      3 C         141.0255  138.0016  162.0744 C.3     1  UNL1        0.0882
      4 N         142.4054  138.0550  162.6600 N.3     1  UNL1       -0.2700
      5 C         142.5873  138.0983  164.1483 C.3     1  UNL1        0.0897
      6 C         141.3894  138.0882  165.0509 C.3     1  UNL1        0.0896
      7 N         140.0095  138.0348  164.4652 N.3     1  UNL1       -0.2711
      8 C         143.6034  138.0651  161.7573 C.3     1  UNL1        0.0769
      9 C         144.1202  139.3632  161.2114 C.3     1  UNL1        0.0437
     10 C         144.1850  140.5749  162.0932 C.ar    1  UNL1       -0.0204
     11 C         145.1208  140.6004  163.2652 C.ar    1  UNL1        0.0021
     12 C         145.1856  141.8121  164.1470 C.ar    1  UNL1        0.0749
     13 C         144.3146  142.9983  163.8567 C.ar    1  UNL1        0.2900
     14 C         143.3788  142.9728  162.6847 C.ar    1  UNL1        0.0749
     15 C         143.3140  141.7611  161.8030 C.ar    1  UNL1        0.0021
     16 N         144.3794  144.2100  164.7385 N.pl3   1  UNL1        0.0809
     17 O         143.6612  145.4657  164.3417 O.2     1  UNL1        0.0415
     18 O         145.1625  144.1661  166.0171 O.co2   1  UNL1       -0.5760
     19 C         138.8115  138.0247  165.3679 C.3     1  UNL1        0.0768
     20 C         138.2927  139.3105  165.9402 C.3     1  UNL1        0.0437
     21 C         139.1965  140.1871  166.7557 C.ar    1  UNL1       -0.0204
     22 C         139.9617  141.2956  166.0956 C.ar    1  UNL1        0.0021
     23 C         140.8654  142.1721  166.9110 C.ar    1  UNL1        0.0749
     24 C         141.0039  141.9403  168.3865 C.ar    1  UNL1        0.2900
     25 C         140.2386  140.8318  169.0465 C.ar    1  UNL1        0.0749
     26 C         139.3349  139.9552  168.2311 C.ar    1  UNL1        0.0021
     27 N         141.9076  142.8169  169.2019 N.pl3   1  UNL1        0.0809
     28 O         143.3951  142.7246  169.0323 O.2     1  UNL1        0.0415
     29 O         141.3237  143.7857  170.1870 O.co2   1  UNL1       -0.5760
@<TRIPOS>UNITY_ATOM_ATTR
16 1
charge 1
18 1
charge -1
27 1
charge 1
29 1
charge -1
@<TRIPOS>BOND
     1     1     2    1
     2     2     3    1
     3     3     4    1
     4     4     8    1
     5     8     9    1
     6     9    10    1
     7    10    11   ar
     8    11    12   ar
     9    12    13   ar
    10    13    16    1
    11    16    17    2
    12    16    18    1
    13    13    14   ar
    14    14    15   ar
    15     4     5    1
    16     5     6    1
    17     6     7    1
    18     7    19    1
    19    19    20    1
    20    20    21    1
    21    21    22   ar
    22    22    23   ar
    23    23    24   ar
    24    24    27    1
    25    27    28    2
    26    27    29    1
    27    24    25   ar
    28    25    26   ar
    29     7     2    1
    30    26    21   ar
    31    15    10   ar
@<TRIPOS>MOLECULE
*****
 29 31 0 0 0
SMALL
GASTEIGER

@<TRIPOS>ATOM
      1 C         138.3875  138.0063  162.3105 C.3     1  UNL1        0.0188
      2 C         139.7513  138.0725  162.9315 C.3     1  UNL1        0.0736
      3 C         140.9733  138.0466  162.0620 C.3     1  UNL1        0.0882
      4 N         142.3371  138.1128  162.6830 N.3     1  UNL1       -0.2700
      5 C         142.4789  138.2049  164.1734 C.3     1  UNL1        0.0897
      6 C         141.2569  138.2307  165.0428 C.3     1  UNL1        0.0896
      7 N         139.8931  138.1645  164.4219 N.3     1  UNL1       -0.2711
      8 C         143.5592  138.0870  161.8134 C.3     1  UNL1        0.0769
      9 C         144.1273  139.3687  161.2799 C.3     1  UNL1        0.0437
     10 C         144.2059  140.5790  162.1625 C.ar    1  UNL1       -0.0204
     11 C         145.1811  140.6145  163.3016 C.ar    1  UNL1        0.0021
     12 C         145.2597  141.8249  164.1842 C.ar    1  UNL1        0.0749
     13 C         144.3631  142.9996  163.9276 C.ar    1  UNL1        0.2900
     14 C         143.3878  142.9641  162.7884 C.ar    1  UNL1        0.0749
     15 C         143.3092  141.7538  161.9059 C.ar    1  UNL1        0.0021
     16 N         144.4417  144.2100  164.8101 N.pl3   1  UNL1        0.0809
     17 O         145.2389  144.1618  166.0799 O.2     1  UNL1        0.0415
     18 O         143.7231  145.4684  164.4230 O.co2   1  UNL1       -0.5760
     19 C         138.6711  138.1904  165.2914 C.3     1  UNL1        0.0768
     20 C         138.1882  139.4881  165.8681 C.3     1  UNL1        0.0437
     21 C         138.4738  140.7775  165.1566 C.ar    1  UNL1       -0.0204
     22 C         139.6187  141.6402  165.5983 C.ar    1  UNL1        0.0021
     23 C         139.9043  142.9294  164.8869 C.ar    1  UNL1        0.0749
     24 C         139.0451  143.3560  163.7337 C.ar    1  UNL1        0.2900
     25 C         137.9003  142.4933  163.2920 C.ar    1  UNL1        0.0749
     26 C         137.6147  141.2040  164.0034 C.ar    1  UNL1        0.0021
     27 N         139.3308  144.6453  163.0222 N.pl3   1  UNL1        0.0809
     28 O         140.6763  145.2943  163.1573 O.2     1  UNL1        0.0415
     29 O         138.2708  145.2855  162.1756 O.co2   1  UNL1       -0.5760
@<TRIPOS>UNITY_ATOM_ATTR
16 1
charge 1
18 1
charge -1
27 1
charge 1
29 1
charge -1
@<TRIPOS>BOND
     1     1     2    1
     2     2     3    1
     3     3     4    1
     4     4     8    1
     5     8     9    1
     6     9    10    1
     7    10    11   ar
     8    11    12   ar
     9    12    13   ar
    10    13    16    1
    11    16    17    2
    12    16    18    1
    13    13    14   ar
    14    14    15   ar
    15     4     5    1
    16     5     6    1
    17     6     7    1
    18     7    19    1
    19    19    20    1
    20    20    21    1
    21    21    22   ar
    22    22    23   ar
    23    23    24   ar
    24    24    27    1
    25    27    28    2
    26    27    29    1
    27    24    25   ar
    28    25    26   ar
    29     7     2    1
    30    26    21   ar
    31    15    10   ar
@<TRIPOS>MOLECULE
*****
 29 31 0 0 0
SMALL
GASTEIGER

@<TRIPOS>ATOM
      1 C         141.2460  138.4146  160.7286 C.3     1  UNL1        0.0188
      2 C         140.8530  138.3225  162.1733 C.3     1  UNL1        0.0736
      3 C         141.9015  138.4067  163.2426 C.3     1  UNL1        0.0882
      4 N         141.5086  138.3146  164.6873 N.3     1  UNL1       -0.2700
      5 C         140.0671  138.1383  165.0626 C.3     1  UNL1        0.0897
      6 C         139.0185  138.0540  163.9933 C.3     1  UNL1        0.0896
      7 N         139.4115  138.1461  162.5486 N.3     1  UNL1       -0.2711
      8 C         142.5572  138.3989  165.7566 C.3     1  UNL1        0.0769
      9 C         143.0940  139.7349  166.1770 C.3     1  UNL1        0.0437
     10 C         142.4431  140.4848  167.3012 C.ar    1  UNL1       -0.0204
     11 C         142.8928  141.8766  167.6340 C.ar    1  UNL1        0.0021
     12 C         142.2418  142.6264  168.7583 C.ar    1  UNL1        0.0749
     13 C         141.1412  141.9845  169.5498 C.ar    1  UNL1        0.2900
     14 C         140.6915  140.5927  169.2170 C.ar    1  UNL1        0.0749
     15 C         141.3424  139.8429  168.0928 C.ar    1  UNL1        0.0021
     16 N         140.4903  142.7344  170.6740 N.pl3   1  UNL1        0.0809
     17 O         140.4239  142.1247  172.0430 O.2     1  UNL1        0.0415
     18 O         139.9056  144.0939  170.4294 O.co2   1  UNL1       -0.5760
     19 C         138.3629  138.0619  161.4793 C.3     1  UNL1        0.0768
     20 C         137.3992  139.1944  161.2830 C.3     1  UNL1        0.0437
     21 C         137.7967  140.5912  161.6589 C.ar    1  UNL1       -0.0204
     22 C         137.2917  141.1970  162.9347 C.ar    1  UNL1        0.0021
     23 C         137.6891  142.5937  163.3106 C.ar    1  UNL1        0.0749
     24 C         138.5916  143.3845  162.4106 C.ar    1  UNL1        0.2900
     25 C         139.0967  142.7786  161.1347 C.ar    1  UNL1        0.0749
     26 C         138.6993  141.3820  160.7589 C.ar    1  UNL1        0.0021
     27 N         138.9891  144.7812  162.7865 N.pl3   1  UNL1        0.0809
     28 O         139.5205  145.0659  164.1600 O.2     1  UNL1        0.0415
     29 O         138.8553  145.8932  161.7887 O.co2   1  UNL1       -0.5760
@<TRIPOS>UNITY_ATOM_ATTR
16 1
charge 1
18 1
charge -1
27 1
charge 1
29 1
charge -1
@<TRIPOS>BOND
     1     1     2    1
     2     2     3    1
     3     3     4    1
     4     4     8    1
     5     8     9    1
     6     9    10    1
     7    10    11   ar
     8    11    12   ar
     9    12    13   ar
    10    13    16    1
    11    16    17    2
    12    16    18    1
    13    13    14   ar
    14    14    15   ar
    15     4     5    1
    16     5     6    1
    17     6     7    1
    18     7    19    1
    19    19    20    1
    20    20    21    1
    21    21    22   ar
    22    22    23   ar
    23    23    24   ar
    24    24    27    1
    25    27    28    2
    26    27    29    1
    27    24    25   ar
    28    25    26   ar
    29     7     2    1
    30    26    21   ar
    31    15    10   ar
@<TRIPOS>MOLECULE
*****
 29 31 0 0 0
SMALL
GASTEIGER

@<TRIPOS>ATOM
      1 C         143.0635  138.0934  162.3797 C.3     1  UNL1        0.0188
      2 C         141.6938  138.0830  162.9913 C.3     1  UNL1        0.0736
      3 C         140.4794  138.0800  162.1110 C.3     1  UNL1        0.0882
      4 N         139.1098  138.0696  162.7225 N.3     1  UNL1       -0.2700
      5 C         138.9546  138.0621  164.2144 C.3     1  UNL1        0.0897
      6 C         140.1690  138.0651  165.0948 C.3     1  UNL1        0.0896
      7 N         141.5387  138.0755  164.4832 N.3     1  UNL1       -0.2711
      8 C         137.8953  138.0667  161.8421 C.3     1  UNL1        0.0769
      9 C         137.5887  139.2576  160.9832 C.3     1  UNL1        0.0437
     10 C         137.8761  140.6404  161.4883 C.ar    1  UNL1       -0.0204
     11 C         137.3484  141.0762  162.8231 C.ar    1  UNL1        0.0021
     12 C         137.6359  142.4591  163.3281 C.ar    1  UNL1        0.0749
     13 C         138.4511  143.4062  162.4983 C.ar    1  UNL1        0.2900
     14 C         138.9788  142.9704  161.1636 C.ar    1  UNL1        0.0749
     15 C         138.6913  141.5876  160.6585 C.ar    1  UNL1        0.0021
     16 N         138.7385  144.7890  163.0034 N.pl3   1  UNL1        0.0809
     17 O         138.8101  145.0488  164.4790 O.2     1  UNL1        0.0415
     18 O         138.9545  145.9121  162.0329 O.co2   1  UNL1       -0.5760
     19 C         142.7532  138.0784  165.3636 C.3     1  UNL1        0.0768
     20 C         143.1038  139.3043  166.1536 C.3     1  UNL1        0.0437
     21 C         143.1135  140.6484  165.4876 C.ar    1  UNL1       -0.0204
     22 C         144.2084  141.0005  164.5248 C.ar    1  UNL1        0.0021
     23 C         144.2181  142.3445  163.8589 C.ar    1  UNL1        0.0749
     24 C         143.1328  143.3364  164.1558 C.ar    1  UNL1        0.2900
     25 C         142.0378  142.9843  165.1186 C.ar    1  UNL1        0.0749
     26 C         142.0281  141.6403  165.7845 C.ar    1  UNL1        0.0021
     27 N         143.1424  144.6805  163.4898 N.pl3   1  UNL1        0.0809
     28 O         142.0030  145.6321  163.7046 O.2     1  UNL1        0.0415
     29 O         144.2914  145.0729  162.6091 O.co2   1  UNL1       -0.5760
@<TRIPOS>UNITY_ATOM_ATTR
16 1
charge 1
18 1
charge -1
27 1
charge 1
29 1
charge -1
@<TRIPOS>BOND
     1     1     2    1
     2     2     3    1
     3     3     4    1
     4     4     8    1
     5     8     9    1
     6     9    10    1
     7    10    11   ar
     8    11    12   ar
     9    12    13   ar
    10    13    16    1
    11    16    17    2
    12    16    18    1
    13    13    14   ar
    14    14    15   ar
    15     4     5    1
    16     5     6    1
    17     6     7    1
    18     7    19    1
    19    19    20    1
    20    20    21    1
    21    21    22   ar
    22    22    23   ar
    23    23    24   ar
    24    24    27    1
    25    27    28    2
    26    27    29    1
    27    24    25   ar
    28    25    26   ar
    29     7     2    1
    30    26    21   ar
    31    15    10   ar
@<TRIPOS>MOLECULE
*****
 29 31 0 0 0
SMALL
GASTEIGER

@<TRIPOS>ATOM
      1 C         143.3146  138.6333  162.7502 C.3     1  UNL1        0.0188
      2 C         141.8756  138.4695  163.1404 C.3     1  UNL1        0.0736
      3 C         140.8169  138.3803  162.0816 C.3     1  UNL1        0.0882
      4 N         139.3778  138.2165  162.4719 N.3     1  UNL1       -0.2700
      5 C         138.9974  138.1420  163.9209 C.3     1  UNL1        0.0897
      6 C         140.0561  138.2313  164.9797 C.3     1  UNL1        0.0896
      7 N         141.4952  138.3950  164.5895 N.3     1  UNL1       -0.2711
      8 C         138.3191  138.1272  161.4130 C.3     1  UNL1        0.0769
      9 C         137.3658  139.2669  161.2076 C.3     1  UNL1        0.0437
     10 C         137.7609  140.6569  161.6098 C.ar    1  UNL1       -0.0204
     11 C         137.2706  141.2306  162.9061 C.ar    1  UNL1        0.0021
     12 C         137.6657  142.6206  163.3083 C.ar    1  UNL1        0.0749
     13 C         138.5511  143.4370  162.4141 C.ar    1  UNL1        0.2900
     14 C         139.0414  142.8634  161.1177 C.ar    1  UNL1        0.0749
     15 C         138.6463  141.4734  160.7155 C.ar    1  UNL1        0.0021
     16 N         138.9462  144.8270  162.8162 N.pl3   1  UNL1        0.0809
     17 O         139.3574  145.1102  164.2308 O.2     1  UNL1        0.0415
     18 O         138.9302  145.9338  161.8040 O.co2   1  UNL1       -0.5760
     19 C         142.5539  138.4843  165.6484 C.3     1  UNL1        0.0768
     20 C         143.0646  139.8247  166.0873 C.3     1  UNL1        0.0437
     21 C         142.4218  140.5299  167.2447 C.ar    1  UNL1       -0.0204
     22 C         142.9088  141.8862  167.6608 C.ar    1  UNL1        0.0021
     23 C         142.2661  142.5914  168.8181 C.ar    1  UNL1        0.0749
     24 C         141.1363  141.9403  169.5594 C.ar    1  UNL1        0.2900
     25 C         140.6493  140.5840  169.1434 C.ar    1  UNL1        0.0749
     26 C         141.2920  139.8788  167.9860 C.ar    1  UNL1        0.0021
     27 N         140.4936  142.6455  170.7169 N.pl3   1  UNL1        0.0809
     28 O         139.8230  143.9711  170.5088 O.2     1  UNL1        0.0415
     29 O         140.5214  142.0252  172.0823 O.co2   1  UNL1       -0.5760
@<TRIPOS>UNITY_ATOM_ATTR
16 1
charge 1
18 1
charge -1
27 1
charge 1
29 1
charge -1
@<TRIPOS>BOND
     1     1     2    1
     2     2     3    1
     3     3     4    1
     4     4     8    1
     5     8     9    1
     6     9    10    1
     7    10    11   ar
     8    11    12   ar
     9    12    13   ar
    10    13    16    1
    11    16    17    2
    12    16    18    1
    13    13    14   ar
    14    14    15   ar
    15     4     5    1
    16     5     6    1
    17     6     7    1
    18     7    19    1
    19    19    20    1
    20    20    21    1
    21    21    22   ar
    22    22    23   ar
    23    23    24   ar
    24    24    27    1
    25    27    28    2
    26    27    29    1
    27    24    25   ar
    28    25    26   ar
    29     7     2    1
    30    26    21   ar
    31    15    10   ar
@<TRIPOS>MOLECULE
*****
 29 31 0 0 0
SMALL
GASTEIGER

@<TRIPOS>ATOM
      1 C         144.0814  139.5103  161.5396 C.3     1  UNL1        0.0188
      2 C         143.5129  139.2880  162.9098 C.3     1  UNL1        0.0736
      3 C         142.3713  138.3343  163.1025 C.3     1  UNL1        0.0882
      4 N         141.8028  138.1120  164.4726 N.3     1  UNL1       -0.2700
      5 C         142.3757  138.8436  165.6501 C.3     1  UNL1        0.0897
      6 C         143.5172  139.7974  165.4574 C.3     1  UNL1        0.0896
      7 N         144.0858  140.0196  164.0873 N.3     1  UNL1       -0.2711
      8 C         140.6612  137.1582  164.6652 C.3     1  UNL1        0.0769
      9 C         139.2641  137.6819  164.8193 C.3     1  UNL1        0.0437
     10 C         138.8942  139.0142  164.2378 C.ar    1  UNL1       -0.0204
     11 C         139.0077  140.2548  165.0733 C.ar    1  UNL1        0.0021
     12 C         138.6378  141.5871  164.4918 C.ar    1  UNL1        0.0749
     13 C         138.1544  141.6788  163.0748 C.ar    1  UNL1        0.2900
     14 C         138.0409  140.4383  162.2393 C.ar    1  UNL1        0.0749
     15 C         138.4107  139.1060  162.8208 C.ar    1  UNL1        0.0021
     16 N         137.7845  143.0111  162.4933 N.pl3   1  UNL1        0.0809
     17 O         137.6833  143.1784  161.0061 O.2     1  UNL1        0.0415
     18 O         137.5159  144.1763  163.3991 O.co2   1  UNL1       -0.5760
     19 C         145.2274  140.9735  163.8946 C.3     1  UNL1        0.0768
     20 C         145.0291  142.4398  164.1402 C.3     1  UNL1        0.0437
     21 C         143.9367  143.1790  163.4257 C.ar    1  UNL1       -0.0204
     22 C         142.9786  144.0342  164.2007 C.ar    1  UNL1        0.0021
     23 C         141.8863  144.7733  163.4862 C.ar    1  UNL1        0.0749
     24 C         141.7521  144.6573  161.9968 C.ar    1  UNL1        0.2900
     25 C         142.7103  143.8021  161.2218 C.ar    1  UNL1        0.0749
     26 C         143.8026  143.0630  161.9362 C.ar    1  UNL1        0.0021
     27 N         140.6598  145.3965  161.2822 N.pl3   1  UNL1        0.0809
     28 O         140.2522  144.9801  159.9000 O.2     1  UNL1        0.0415
     29 O         139.9751  146.5521  161.9499 O.co2   1  UNL1       -0.5760
@<TRIPOS>UNITY_ATOM_ATTR
16 1
charge 1
18 1
charge -1
27 1
charge 1
29 1
charge -1
@<TRIPOS>BOND
     1     1     2    1
     2     2     3    1
     3     3     4    1
     4     4     8    1
     5     8     9    1
     6     9    10    1
     7    10    11   ar
     8    11    12   ar
     9    12    13   ar
    10    13    16    1
    11    16    17    2
    12    16    18    1
    13    13    14   ar
    14    14    15   ar
    15     4     5    1
    16     5     6    1
    17     6     7    1
    18     7    19    1
    19    19    20    1
    20    20    21    1
    21    21    22   ar
    22    22    23   ar
    23    23    24   ar
    24    24    27    1
    25    27    28    2
    26    27    29    1
    27    24    25   ar
    28    25    26   ar
    29     7     2    1
    30    26    21   ar
    31    15    10   ar
@<TRIPOS>MOLECULE
*****
 29 31 0 0 0
SMALL
GASTEIGER

@<TRIPOS>ATOM
      1 C         140.7532  141.2603  159.5291 C.3     1  UNL1        0.0188
      2 C         141.6005  140.8198  160.6858 C.3     1  UNL1        0.0736
      3 C         142.6581  141.7330  161.2315 C.3     1  UNL1        0.0882
      4 N         143.5055  141.2925  162.3881 N.3     1  UNL1       -0.2700
      5 C         143.2953  139.9388  162.9992 C.3     1  UNL1        0.0897
      6 C         142.2378  139.0257  162.4535 C.3     1  UNL1        0.0896
      7 N         141.3904  139.4662  161.2969 N.3     1  UNL1       -0.2711
      8 C         144.5630  142.2057  162.9338 C.3     1  UNL1        0.0769
      9 C         144.2425  143.1289  164.0717 C.3     1  UNL1        0.0437
     10 C         142.8178  143.5015  164.3568 C.ar    1  UNL1       -0.0204
     11 C         142.1858  144.6554  163.6363 C.ar    1  UNL1        0.0021
     12 C         140.7610  145.0280  163.9214 C.ar    1  UNL1        0.0749
     13 C         139.9682  144.2466  164.9269 C.ar    1  UNL1        0.2900
     14 C         140.6002  143.0927  165.6474 C.ar    1  UNL1        0.0749
     15 C         142.0250  142.7201  165.3623 C.ar    1  UNL1        0.0021
     16 N         138.5435  144.6192  165.2119 N.pl3   1  UNL1        0.0809
     17 O         137.4375  144.0520  164.3721 O.2     1  UNL1        0.0415
     18 O         138.2247  145.5590  166.3367 O.co2   1  UNL1       -0.5760
     19 C         140.3328  138.5529  160.7512 C.3     1  UNL1        0.0768
     20 C         138.9567  138.5582  161.3479 C.3     1  UNL1        0.0437
     21 C         138.7837  138.6749  162.8334 C.ar    1  UNL1       -0.0204
     22 C         139.0216  137.4828  163.7121 C.ar    1  UNL1        0.0021
     23 C         138.8486  137.5995  165.1975 C.ar    1  UNL1        0.0749
     24 C         138.4378  138.9083  165.8042 C.ar    1  UNL1        0.2900
     25 C         138.1999  140.1005  164.9254 C.ar    1  UNL1        0.0749
     26 C         138.3729  139.9838  163.4401 C.ar    1  UNL1        0.0021
     27 N         138.2648  139.0251  167.2896 N.pl3   1  UNL1        0.0809
     28 O         139.1636  139.9286  168.0807 O.2     1  UNL1        0.0415
     29 O         137.1930  138.2383  167.9840 O.co2   1  UNL1       -0.5760
@<TRIPOS>UNITY_ATOM_ATTR
16 1
charge 1
18 1
charge -1
27 1
charge 1
29 1
charge -1
@<TRIPOS>BOND
     1     1     2    1
     2     2     3    1
     3     3     4    1
     4     4     8    1
     5     8     9    1
     6     9    10    1
     7    10    11   ar
     8    11    12   ar
     9    12    13   ar
    10    13    16    1
    11    16    17    2
    12    16    18    1
    13    13    14   ar
    14    14    15   ar
    15     4     5    1
    16     5     6    1
    17     6     7    1
    18     7    19    1
    19    19    20    1
    20    20    21    1
    21    21    22   ar
    22    22    23   ar
    23    23    24   ar
    24    24    27    1
    25    27    28    2
    26    27    29    1
    27    24    25   ar
    28    25    26   ar
    29     7     2    1
    30    26    21   ar
    31    15    10   ar
