@<TRIPOS>MOLECULE
*****
 33 38 0 0 0
SMALL
GASTEIGER

@<TRIPOS>ATOM
      1 C         142.5694  136.7481  157.7730 C.3     1  UNL1        0.1161
      2 C         143.2873  135.4463  157.5730 C.3     1  UNL1        0.0510
      3 C         142.9341  134.5660  156.4110 C.2     1  UNL1       -0.0044
      4 C         141.8632  134.9874  155.4490 C.2     1  UNL1        0.0689
      5 N         141.7325  133.9194  154.4039 N.2     1  UNL1       -0.2526
      6 C         142.7226  132.8379  154.7199 C.2     1  UNL1        0.0627
      7 C         143.0439  131.5409  154.0384 C.3     1  UNL1        0.0717
      8 C         144.1079  130.6435  154.5974 C.2     1  UNL1       -0.0198
      9 C         144.8506  131.0430  155.8379 C.2     1  UNL1       -0.0042
     10 C         144.5293  132.3401  156.5194 C.2     1  UNL1        0.0006
     11 C         143.4653  133.2375  155.9604 C.2     1  UNL1        0.0111
     12 C         141.1453  136.2893  155.6490 C.3     1  UNL1        0.0949
     13 N         141.4985  137.1696  156.8110 N.3     1  UNL1       -0.2887
     14 H         140.6454  137.2940  157.3561 H       1  UNL1        0.1239
     15 C         143.2468  138.4451  161.1975 C.ar    1  UNL1        0.0947
     16 C         143.6854  139.5212  160.2490 C.ar    1  UNL1        0.1187
     17 N         143.4850  139.0165  158.8507 N.ar    1  UNL1       -0.2282
     18 C         142.9226  137.6285  158.9350 C.ar    1  UNL1        0.1318
     19 N         142.7753  137.2753  160.3854 N.ar    1  UNL1       -0.3385
     20 H         142.4299  136.4251  160.7417 H       1  UNL1        0.1672
     21 F         143.3584  138.7637  167.1880 F       1  UNL1       -0.2025
     22 C         143.3305  138.6841  165.6903 C.ar    1  UNL1        0.1592
     23 C         144.4472  139.2816  164.8866 C.ar    1  UNL1        0.0328
     24 C         144.4192  139.2019  163.3890 C.ar    1  UNL1        0.0230
     25 C         143.2747  138.5248  162.6951 C.ar    1  UNL1        0.0986
     26 N         142.1580  137.9273  163.4989 N.ar    1  UNL1       -0.2400
     27 C         142.1859  138.0070  164.9965 C.ar    1  UNL1        0.1284
     28 C         140.0744  136.7108  154.6871 C.3     1  UNL1        0.0252
     29 C         138.7405  137.1645  155.2015 C.3     1  UNL1        0.0339
     30 C         137.6695  137.5860  154.2394 C.3     1  UNL1        0.1422
     31 O         137.9325  137.5537  152.7630 O.3     1  UNL1       -0.3538
     32 C         139.2665  137.0999  152.2486 C.3     1  UNL1        0.1422
     33 C         140.3374  136.6785  153.2106 C.3     1  UNL1        0.0339
@<TRIPOS>BOND
     1    21    22    1
     2    22    23   ar
     3    23    24   ar
     4    24    25   ar
     5    25    15    1
     6    15    16   ar
     7    16    17   ar
     8    17    18   ar
     9     1    18    1
    10     1     2    1
    11     2     3    1
    12     3     4    2
    13     4     5    1
    14     5     6    2
    15     6     7    1
    16     7     8    1
    17     8     9    2
    18     9    10    1
    19    10    11    2
    20     4    12    1
    21    12    28    1
    22    28    29    1
    23    29    30    1
    24    30    31    1
    25    31    32    1
    26    32    33    1
    27    12    13    1
    28    18    19   ar
    29    25    26   ar
    30    26    27   ar
    31    27    22   ar
    32    19    15   ar
    33    13     1    1
    34    11     3    1
    35    33    28    1
    36    11     6    1
    37    13    14    1
    38    19    20    1
@<TRIPOS>MOLECULE
*****
 33 38 0 0 0
SMALL
GASTEIGER

@<TRIPOS>ATOM
      1 C         140.0496  136.8435  155.3865 C.3     1  UNL1        0.1161
      2 C         140.5984  135.5078  154.9807 C.3     1  UNL1        0.0510
      3 C         141.8339  134.9723  155.6416 C.2     1  UNL1       -0.0044
      4 C         142.5206  135.7726  156.7084 C.2     1  UNL1        0.0689
      5 N         143.7125  134.9925  157.1781 N.2     1  UNL1       -0.2526
      6 C         143.7625  133.7100  156.4016 C.2     1  UNL1        0.0627
      7 C         144.7153  132.5520  156.4366 C.3     1  UNL1        0.0717
      8 C         144.5069  131.3816  155.5219 C.2     1  UNL1       -0.0198
      9 C         143.3459  131.3692  154.5723 C.2     1  UNL1       -0.0042
     10 C         142.3931  132.5272  154.5374 C.2     1  UNL1        0.0006
     11 C         142.6014  133.6976  155.4520 C.2     1  UNL1        0.0111
     12 C         141.9718  137.1083  157.1142 C.3     1  UNL1        0.0949
     13 N         140.7363  137.6438  156.4533 N.3     1  UNL1       -0.2887
     14 H         140.9910  138.5375  156.0329 H       1  UNL1        0.1239
     15 C         136.7336  138.5675  154.3390 C.ar    1  UNL1        0.0947
     16 C         137.0920  137.8382  153.0781 C.ar    1  UNL1        0.1187
     17 N         138.3778  137.1036  153.3171 N.ar    1  UNL1       -0.2282
     18 C         138.8140  137.3789  154.7256 C.ar    1  UNL1        0.1318
     19 N         137.7979  138.2836  155.3571 N.ar    1  UNL1       -0.3385
     20 H         137.8248  138.6302  156.2782 H       1  UNL1        0.1672
     21 F         131.8927  142.0149  155.1646 F       1  UNL1       -0.2025
     22 C         133.1030  141.1530  154.9581 C.ar    1  UNL1        0.1592
     23 C         133.9989  141.3883  153.7784 C.ar    1  UNL1        0.0328
     24 C         135.2091  140.5265  153.5720 C.ar    1  UNL1        0.0230
     25 C         135.5233  139.4293  154.5454 C.ar    1  UNL1        0.0986
     26 N         134.6274  139.1940  155.7252 N.ar    1  UNL1       -0.2400
     27 C         133.4172  140.0559  155.9315 C.ar    1  UNL1        0.1284
     28 C         142.6584  137.9086  158.1810 C.3     1  UNL1        0.0252
     29 C         142.8599  137.3214  159.5464 C.3     1  UNL1        0.0339
     30 C         143.5466  138.1218  160.6132 C.3     1  UNL1        0.1422
     31 O         144.0318  139.5093  160.3145 O.3     1  UNL1       -0.3538
     32 C         143.8303  140.0966  158.9490 C.3     1  UNL1        0.1422
     33 C         143.1437  139.2963  157.8823 C.3     1  UNL1        0.0339
@<TRIPOS>BOND
     1    21    22    1
     2    22    23   ar
     3    23    24   ar
     4    24    25   ar
     5    25    15    1
     6    15    16   ar
     7    16    17   ar
     8    17    18   ar
     9     1    18    1
    10     1     2    1
    11     2     3    1
    12     3     4    2
    13     4     5    1
    14     5     6    2
    15     6     7    1
    16     7     8    1
    17     8     9    2
    18     9    10    1
    19    10    11    2
    20     4    12    1
    21    12    28    1
    22    28    29    1
    23    29    30    1
    24    30    31    1
    25    31    32    1
    26    32    33    1
    27    12    13    1
    28    18    19   ar
    29    25    26   ar
    30    26    27   ar
    31    27    22   ar
    32    19    15   ar
    33    13     1    1
    34    11     3    1
    35    33    28    1
    36    11     6    1
    37    13    14    1
    38    19    20    1
@<TRIPOS>MOLECULE
*****
 33 38 0 0 0
SMALL
GASTEIGER

@<TRIPOS>ATOM
      1 C         142.1012  140.0024  160.5876 C.3     1  UNL1        0.1161
      2 C         142.5597  139.3570  161.8617 C.3     1  UNL1        0.0510
      3 C         142.2374  139.9916  163.1821 C.2     1  UNL1       -0.0044
      4 C         141.4565  141.2714  163.2284 C.2     1  UNL1        0.0689
      5 N         141.2900  141.6610  164.6673 N.2     1  UNL1       -0.2526
      6 C         141.9679  140.6219  165.5103 C.2     1  UNL1        0.0627
      7 C         142.1277  140.4819  166.9952 C.3     1  UNL1        0.0717
      8 C         142.8730  139.3101  167.5621 C.2     1  UNL1       -0.0198
      9 C         143.4585  138.2783  166.6442 C.2     1  UNL1       -0.0042
     10 C         143.2987  138.4183  165.1593 C.2     1  UNL1        0.0006
     11 C         142.5534  139.5901  164.5924 C.2     1  UNL1        0.0111
     12 C         140.9980  141.9168  161.9543 C.3     1  UNL1        0.0949
     13 N         141.3204  141.2823  160.6339 N.3     1  UNL1       -0.2887
     14 H         141.8501  141.9700  160.0983 H       1  UNL1        0.1239
     15 C         142.8143  137.7123  157.5360 C.ar    1  UNL1        0.0947
     16 C         143.0250  139.0703  156.9348 C.ar    1  UNL1        0.1187
     17 N         142.7835  140.0935  158.0047 N.ar    1  UNL1       -0.2282
     18 C         142.4236  139.3678  159.2672 C.ar    1  UNL1        0.1318
     19 N         142.4426  137.8962  158.9775 N.ar    1  UNL1       -0.3385
     20 H         142.2457  137.1773  159.6207 H       1  UNL1        0.1672
     21 F         143.3621  132.4659  154.6768 F       1  UNL1       -0.2025
     22 C         143.2251  133.7775  155.3916 C.ar    1  UNL1        0.1592
     23 C         142.9481  135.0300  154.6141 C.ar    1  UNL1        0.0328
     24 C         142.8112  136.3416  155.3289 C.ar    1  UNL1        0.0230
     25 C         142.9513  136.4007  156.8212 C.ar    1  UNL1        0.0986
     26 N         143.2283  135.1482  157.5987 N.ar    1  UNL1       -0.2400
     27 C         143.3652  133.8366  156.8838 C.ar    1  UNL1        0.1284
     28 C         140.2172  143.1967  162.0006 C.3     1  UNL1        0.0252
     29 C         138.8795  143.2350  162.6780 C.3     1  UNL1        0.0339
     30 C         138.0986  144.5150  162.7242 C.3     1  UNL1        0.1422
     31 O         138.6556  145.7566  162.0931 O.3     1  UNL1       -0.3538
     32 C         139.9934  145.7182  161.4157 C.3     1  UNL1        0.1422
     33 C         140.7741  144.4383  161.3694 C.3     1  UNL1        0.0339
@<TRIPOS>BOND
     1    21    22    1
     2    22    23   ar
     3    23    24   ar
     4    24    25   ar
     5    25    15    1
     6    15    16   ar
     7    16    17   ar
     8    17    18   ar
     9     1    18    1
    10     1     2    1
    11     2     3    1
    12     3     4    2
    13     4     5    1
    14     5     6    2
    15     6     7    1
    16     7     8    1
    17     8     9    2
    18     9    10    1
    19    10    11    2
    20     4    12    1
    21    12    28    1
    22    28    29    1
    23    29    30    1
    24    30    31    1
    25    31    32    1
    26    32    33    1
    27    12    13    1
    28    18    19   ar
    29    25    26   ar
    30    26    27   ar
    31    27    22   ar
    32    19    15   ar
    33    13     1    1
    34    11     3    1
    35    33    28    1
    36    11     6    1
    37    13    14    1
    38    19    20    1
@<TRIPOS>MOLECULE
*****
 33 38 0 0 0
SMALL
GASTEIGER

@<TRIPOS>ATOM
      1 C         139.3756  139.7249  157.6599 C.3     1  UNL1        0.1161
      2 C         139.0517  139.6341  159.1217 C.3     1  UNL1        0.0510
      3 C         138.7298  140.8770  159.8973 C.2     1  UNL1       -0.0044
      4 C         138.7318  142.2108  159.2110 C.2     1  UNL1        0.0689
      5 N         138.3777  143.2555  160.2274 N.2     1  UNL1       -0.2526
      6 C         138.1570  142.5675  161.5419 C.2     1  UNL1        0.0627
      7 C         137.7860  143.0896  162.8982 C.3     1  UNL1        0.0717
      8 C         137.6326  142.1417  164.0505 C.2     1  UNL1       -0.0198
      9 C         137.8502  140.6716  163.8465 C.2     1  UNL1       -0.0042
     10 C         138.2212  140.1495  162.4901 C.2     1  UNL1        0.0006
     11 C         138.3746  141.0974  161.3378 C.2     1  UNL1        0.0111
     12 C         139.0556  142.3016  157.7491 C.3     1  UNL1        0.0949
     13 N         139.3775  141.0587  156.9736 N.3     1  UNL1       -0.2887
     14 H         140.3114  141.1882  156.5843 H       1  UNL1        0.1239
     15 C         140.8059  136.4661  156.1109 C.ar    1  UNL1        0.0947
     16 C         139.5801  136.6724  155.2713 C.ar    1  UNL1        0.1187
     17 N         138.8951  137.9182  155.7494 N.ar    1  UNL1       -0.2282
     18 C         139.6976  138.4819  156.8844 C.ar    1  UNL1        0.1318
     19 N         140.8785  137.5845  157.1079 N.ar    1  UNL1       -0.3385
     20 H         141.5783  137.7078  157.7892 H       1  UNL1        0.1672
     21 F         144.7298  131.9586  155.5754 F       1  UNL1       -0.2025
     22 C         143.7488  133.0855  155.7093 C.ar    1  UNL1        0.1592
     23 C         142.5972  133.1948  154.7543 C.ar    1  UNL1        0.0328
     24 C         141.6163  134.3216  154.8882 C.ar    1  UNL1        0.0230
     25 C         141.7869  135.3392  155.9770 C.ar    1  UNL1        0.0986
     26 N         142.9384  135.2299  156.9320 N.ar    1  UNL1       -0.2400
     27 C         143.9194  134.1030  156.7981 C.ar    1  UNL1        0.1284
     28 C         139.0576  143.6354  157.0628 C.3     1  UNL1        0.0252
     29 C         140.0067  144.7074  157.5097 C.3     1  UNL1        0.0339
     30 C         140.0086  146.0413  156.8234 C.3     1  UNL1        0.1422
     31 O         139.0613  146.3030  155.6901 O.3     1  UNL1       -0.3538
     32 C         138.1121  145.2309  155.2432 C.3     1  UNL1        0.1422
     33 C         138.1103  143.8972  155.9295 C.3     1  UNL1        0.0339
@<TRIPOS>BOND
     1    21    22    1
     2    22    23   ar
     3    23    24   ar
     4    24    25   ar
     5    25    15    1
     6    15    16   ar
     7    16    17   ar
     8    17    18   ar
     9     1    18    1
    10     1     2    1
    11     2     3    1
    12     3     4    2
    13     4     5    1
    14     5     6    2
    15     6     7    1
    16     7     8    1
    17     8     9    2
    18     9    10    1
    19    10    11    2
    20     4    12    1
    21    12    28    1
    22    28    29    1
    23    29    30    1
    24    30    31    1
    25    31    32    1
    26    32    33    1
    27    12    13    1
    28    18    19   ar
    29    25    26   ar
    30    26    27   ar
    31    27    22   ar
    32    19    15   ar
    33    13     1    1
    34    11     3    1
    35    33    28    1
    36    11     6    1
    37    13    14    1
    38    19    20    1
@<TRIPOS>MOLECULE
*****
 33 38 0 0 0
SMALL
GASTEIGER

@<TRIPOS>ATOM
      1 C         143.3775  140.2078  158.1121 C.3     1  UNL1        0.1161
      2 C         143.9300  140.1972  159.5066 C.3     1  UNL1        0.0510
      3 C         143.8094  141.4175  160.3704 C.2     1  UNL1       -0.0044
      4 C         143.1362  142.6484  159.8397 C.2     1  UNL1        0.0689
      5 N         143.1653  143.6931  160.9158 N.2     1  UNL1       -0.2526
      6 C         143.8565  143.1078  162.1115 C.2     1  UNL1        0.0627
      7 C         144.1748  143.6738  163.4636 C.3     1  UNL1        0.0717
      8 C         144.8912  142.8333  164.4787 C.2     1  UNL1       -0.0198
      9 C         145.2892  141.4269  164.1416 C.2     1  UNL1       -0.0042
     10 C         144.9709  140.8610  162.7895 C.2     1  UNL1        0.0006
     11 C         144.2545  141.7014  161.7744 C.2     1  UNL1        0.0111
     12 C         142.5837  142.6590  158.4452 C.3     1  UNL1        0.0949
     13 N         142.7043  141.4387  157.5814 N.3     1  UNL1       -0.2887
     14 H         143.2186  141.7187  156.7463 H       1  UNL1        0.1239
     15 C         143.3105  136.7094  156.4322 C.ar    1  UNL1        0.0947
     16 C         144.0570  137.5094  155.4061 C.ar    1  UNL1        0.1187
     17 N         144.1729  138.9172  155.9105 N.ar    1  UNL1       -0.2282
     18 C         143.4981  138.9873  157.2483 C.ar    1  UNL1        0.1318
     19 N         142.9651  137.6228  157.5707 N.ar    1  UNL1       -0.3385
     20 H         142.4747  137.3710  158.3864 H       1  UNL1        0.1672
     21 F         141.9458  130.8791  156.0495 F       1  UNL1       -0.2025
     22 C         142.2870  132.3367  156.1451 C.ar    1  UNL1        0.1592
     23 C         141.5387  133.3381  155.3161 C.ar    1  UNL1        0.0328
     24 C         141.8799  134.7956  155.4118 C.ar    1  UNL1        0.0230
     25 C         142.9694  135.2518  156.3365 C.ar    1  UNL1        0.0986
     26 N         143.7176  134.2504  157.1655 N.ar    1  UNL1       -0.2400
     27 C         143.3764  132.7929  157.0698 C.ar    1  UNL1        0.1284
     28 C         141.9105  143.8900  157.9145 C.3     1  UNL1        0.0252
     29 C         142.3539  144.4842  156.6107 C.3     1  UNL1        0.0339
     30 C         141.6807  145.7152  156.0800 C.3     1  UNL1        0.1422
     31 O         140.5641  146.3518  156.8532 O.3     1  UNL1       -0.3538
     32 C         140.1206  145.7575  158.1571 C.3     1  UNL1        0.1422
     33 C         140.7938  144.5266  158.6877 C.3     1  UNL1        0.0339
@<TRIPOS>BOND
     1    21    22    1
     2    22    23   ar
     3    23    24   ar
     4    24    25   ar
     5    25    15    1
     6    15    16   ar
     7    16    17   ar
     8    17    18   ar
     9     1    18    1
    10     1     2    1
    11     2     3    1
    12     3     4    2
    13     4     5    1
    14     5     6    2
    15     6     7    1
    16     7     8    1
    17     8     9    2
    18     9    10    1
    19    10    11    2
    20     4    12    1
    21    12    28    1
    22    28    29    1
    23    29    30    1
    24    30    31    1
    25    31    32    1
    26    32    33    1
    27    12    13    1
    28    18    19   ar
    29    25    26   ar
    30    26    27   ar
    31    27    22   ar
    32    19    15   ar
    33    13     1    1
    34    11     3    1
    35    33    28    1
    36    11     6    1
    37    13    14    1
    38    19    20    1
@<TRIPOS>MOLECULE
*****
 33 38 0 0 0
SMALL
GASTEIGER

@<TRIPOS>ATOM
      1 C         143.2431  143.0070  157.4056 C.3     1  UNL1        0.1161
      2 C         143.3023  143.2669  158.8818 C.3     1  UNL1        0.0510
      3 C         142.1523  143.9387  159.5717 C.2     1  UNL1       -0.0044
      4 C         140.9431  144.3507  158.7855 C.2     1  UNL1        0.0689
      5 N         139.9704  144.9896  159.7319 N.2     1  UNL1       -0.2526
      6 C         140.5785  144.9726  161.1031 C.2     1  UNL1        0.0627
      7 C         140.0785  145.4645  162.4289 C.3     1  UNL1        0.0717
      8 C         140.9270  145.3070  163.6558 C.2     1  UNL1       -0.0198
      9 C         142.2755  144.6575  163.5567 C.2     1  UNL1       -0.0042
     10 C         142.7755  144.1655  162.2309 C.2     1  UNL1        0.0006
     11 C         141.9270  144.3231  161.0040 C.2     1  UNL1        0.0111
     12 C         140.8839  144.0908  157.3093 C.3     1  UNL1        0.0949
     13 N         142.0339  143.4189  156.6194 N.3     1  UNL1       -0.2887
     14 H         142.3579  144.0599  155.8951 H       1  UNL1        0.1239
     15 C         146.5159  141.9608  155.6001 C.ar    1  UNL1        0.0947
     16 C         145.8101  140.6417  155.7080 C.ar    1  UNL1        0.1187
     17 N         144.4982  140.8730  156.3975 N.ar    1  UNL1       -0.2282
     18 C         144.3932  142.3351  156.7157 C.ar    1  UNL1        0.1318
     19 N         145.6402  143.0074  156.2229 N.ar    1  UNL1       -0.3385
     20 H         145.8475  143.9671  156.2954 H       1  UNL1        0.1672
     21 F         151.8971  142.8884  153.1136 F       1  UNL1       -0.2025
     22 C         150.5517  142.6565  153.7352 C.ar    1  UNL1        0.1592
     23 C         149.3350  143.3171  153.1581 C.ar    1  UNL1        0.0328
     24 C         147.9897  143.0852  153.7797 C.ar    1  UNL1        0.0230
     25 C         147.8612  142.1927  154.9784 C.ar    1  UNL1        0.0986
     26 N         149.0780  141.5321  155.5555 N.ar    1  UNL1       -0.2400
     27 C         150.4232  141.7640  154.9339 C.ar    1  UNL1        0.1284
     28 C         139.6747  144.5027  156.5231 C.3     1  UNL1        0.0252
     29 C         138.5642  143.5226  156.2867 C.3     1  UNL1        0.0339
     30 C         137.3550  143.9346  155.5004 C.3     1  UNL1        0.1422
     31 O         137.2563  145.3267  154.9507 O.3     1  UNL1       -0.3538
     32 C         138.3669  146.3069  155.1872 C.3     1  UNL1        0.1422
     33 C         139.5760  145.8949  155.9733 C.3     1  UNL1        0.0339
@<TRIPOS>BOND
     1    21    22    1
     2    22    23   ar
     3    23    24   ar
     4    24    25   ar
     5    25    15    1
     6    15    16   ar
     7    16    17   ar
     8    17    18   ar
     9     1    18    1
    10     1     2    1
    11     2     3    1
    12     3     4    2
    13     4     5    1
    14     5     6    2
    15     6     7    1
    16     7     8    1
    17     8     9    2
    18     9    10    1
    19    10    11    2
    20     4    12    1
    21    12    28    1
    22    28    29    1
    23    29    30    1
    24    30    31    1
    25    31    32    1
    26    32    33    1
    27    12    13    1
    28    18    19   ar
    29    25    26   ar
    30    26    27   ar
    31    27    22   ar
    32    19    15   ar
    33    13     1    1
    34    11     3    1
    35    33    28    1
    36    11     6    1
    37    13    14    1
    38    19    20    1
@<TRIPOS>MOLECULE
*****
 33 38 0 0 0
SMALL
GASTEIGER

@<TRIPOS>ATOM
      1 C         141.3395  138.8955  158.5165 C.3     1  UNL1        0.1161
      2 C         142.3993  139.9530  158.4240 C.3     1  UNL1        0.0510
      3 C         143.4761  139.8469  157.3850 C.2     1  UNL1       -0.0044
      4 C         143.4930  138.6833  156.4386 C.2     1  UNL1        0.0689
      5 N         144.6714  138.8462  155.5249 N.2     1  UNL1       -0.2526
      6 C         145.3827  140.1104  155.9066 C.2     1  UNL1        0.0627
      7 C         146.6077  140.7783  155.3559 C.3     1  UNL1        0.0717
      8 C         147.0939  142.0647  155.9548 C.2     1  UNL1       -0.0198
      9 C         146.3551  142.6832  157.1044 C.2     1  UNL1       -0.0042
     10 C         145.1302  142.0153  157.6552 C.2     1  UNL1        0.0006
     11 C         144.6440  140.7289  157.0563 C.2     1  UNL1        0.0111
     12 C         142.4332  137.6258  156.5311 C.3     1  UNL1        0.0949
     13 N         141.3565  137.7319  157.5701 N.3     1  UNL1       -0.2887
     14 H         141.4142  136.8887  158.1411 H       1  UNL1        0.1239
     15 C         139.1113  139.0299  161.6917 C.ar    1  UNL1        0.0947
     16 C         138.1006  139.3000  160.6168 C.ar    1  UNL1        0.1187
     17 N         138.8123  139.2826  159.2965 N.ar    1  UNL1       -0.2282
     18 C         140.2628  139.0017  159.5555 C.ar    1  UNL1        0.1318
     19 N         140.4476  138.8455  161.0358 N.ar    1  UNL1       -0.3385
     20 H         141.2969  138.6554  161.4960 H       1  UNL1        0.1672
     21 F         138.0034  138.7382  167.5814 F       1  UNL1       -0.2025
     22 C         138.2804  138.8111  166.1089 C.ar    1  UNL1        0.1592
     23 C         138.7072  137.5810  165.3643 C.ar    1  UNL1        0.0328
     24 C         138.9842  137.6539  163.8919 C.ar    1  UNL1        0.0230
     25 C         138.8343  138.9570  163.1642 C.ar    1  UNL1        0.0986
     26 N         138.4075  140.1871  163.9089 N.ar    1  UNL1       -0.2400
     27 C         138.1305  140.1142  165.3812 C.ar    1  UNL1        0.1284
     28 C         142.4501  136.4622  155.5847 C.3     1  UNL1        0.0252
     29 C         141.8222  136.5893  154.2285 C.3     1  UNL1        0.0339
     30 C         141.8392  135.4256  153.2821 C.3     1  UNL1        0.1422
     31 O         142.4840  134.1349  153.6920 O.3     1  UNL1       -0.3538
     32 C         143.1120  134.0077  155.0483 C.3     1  UNL1        0.1422
     33 C         143.0950  135.1713  155.9946 C.3     1  UNL1        0.0339
@<TRIPOS>BOND
     1    21    22    1
     2    22    23   ar
     3    23    24   ar
     4    24    25   ar
     5    25    15    1
     6    15    16   ar
     7    16    17   ar
     8    17    18   ar
     9     1    18    1
    10     1     2    1
    11     2     3    1
    12     3     4    2
    13     4     5    1
    14     5     6    2
    15     6     7    1
    16     7     8    1
    17     8     9    2
    18     9    10    1
    19    10    11    2
    20     4    12    1
    21    12    28    1
    22    28    29    1
    23    29    30    1
    24    30    31    1
    25    31    32    1
    26    32    33    1
    27    12    13    1
    28    18    19   ar
    29    25    26   ar
    30    26    27   ar
    31    27    22   ar
    32    19    15   ar
    33    13     1    1
    34    11     3    1
    35    33    28    1
    36    11     6    1
    37    13    14    1
    38    19    20    1
@<TRIPOS>MOLECULE
*****
 33 38 0 0 0
SMALL
GASTEIGER

@<TRIPOS>ATOM
      1 C         141.8025  139.6714  160.9706 C.3     1  UNL1        0.1161
      2 C         140.9289  138.8403  161.8630 C.3     1  UNL1        0.0510
      3 C         140.5014  139.3708  163.1993 C.2     1  UNL1       -0.0044
      4 C         140.9475  140.7324  163.6433 C.2     1  UNL1        0.0689
      5 N         140.3709  140.9881  165.0042 N.2     1  UNL1       -0.2526
      6 C         139.5686  139.7845  165.4014 C.2     1  UNL1        0.0627
      7 C         138.7750  139.4696  166.6347 C.3     1  UNL1        0.0717
      8 C         138.0620  138.1552  166.7524 C.2     1  UNL1       -0.0198
      9 C         138.1427  137.1556  165.6369 C.2     1  UNL1       -0.0042
     10 C         138.9363  137.4705  164.4036 C.2     1  UNL1        0.0006
     11 C         139.6492  138.7850  164.2859 C.2     1  UNL1        0.0111
     12 C         141.8210  141.5635  162.7509 C.3     1  UNL1        0.0949
     13 N         142.2485  141.0330  161.4146 N.3     1  UNL1       -0.2887
     14 H         143.2684  141.0234  161.4142 H       1  UNL1        0.1239
     15 C         142.7412  137.6258  157.8084 C.ar    1  UNL1        0.0947
     16 C         143.0343  139.0228  157.3474 C.ar    1  UNL1        0.1187
     17 N         142.7183  139.9591  158.4759 N.ar    1  UNL1       -0.2282
     18 C         142.2299  139.1408  159.6342 C.ar    1  UNL1        0.1318
     19 N         142.2441  137.6987  159.2217 N.ar    1  UNL1       -0.3385
     20 H         141.9745  136.9343  159.7805 H       1  UNL1        0.1672
     21 F         143.4355  132.6242  154.5677 F       1  UNL1       -0.2025
     22 C         143.2619  133.8746  155.3778 C.ar    1  UNL1        0.1592
     23 C         142.9490  135.1732  154.6953 C.ar    1  UNL1        0.0328
     24 C         142.7755  136.4235  155.5054 C.ar    1  UNL1        0.0230
     25 C         142.9148  136.3754  156.9982 C.ar    1  UNL1        0.0986
     26 N         143.2276  135.0769  157.6808 N.ar    1  UNL1       -0.2400
     27 C         143.4012  133.8265  156.8706 C.ar    1  UNL1        0.1284
     28 C         142.2670  142.9251  163.1949 C.3     1  UNL1        0.0252
     29 C         141.3785  144.1136  162.9763 C.3     1  UNL1        0.0339
     30 C         141.8246  145.4752  163.4203 C.3     1  UNL1        0.1422
     31 O         143.1592  145.6482  164.0829 O.3     1  UNL1       -0.3538
     32 C         144.0477  144.4596  164.3014 C.3     1  UNL1        0.1422
     33 C         143.6017  143.0981  163.8574 C.3     1  UNL1        0.0339
@<TRIPOS>BOND
     1    21    22    1
     2    22    23   ar
     3    23    24   ar
     4    24    25   ar
     5    25    15    1
     6    15    16   ar
     7    16    17   ar
     8    17    18   ar
     9     1    18    1
    10     1     2    1
    11     2     3    1
    12     3     4    2
    13     4     5    1
    14     5     6    2
    15     6     7    1
    16     7     8    1
    17     8     9    2
    18     9    10    1
    19    10    11    2
    20     4    12    1
    21    12    28    1
    22    28    29    1
    23    29    30    1
    24    30    31    1
    25    31    32    1
    26    32    33    1
    27    12    13    1
    28    18    19   ar
    29    25    26   ar
    30    26    27   ar
    31    27    22   ar
    32    19    15   ar
    33    13     1    1
    34    11     3    1
    35    33    28    1
    36    11     6    1
    37    13    14    1
    38    19    20    1
@<TRIPOS>MOLECULE
*****
 33 38 0 0 0
SMALL
GASTEIGER

@<TRIPOS>ATOM
      1 C         141.7608  139.6351  159.4627 C.3     1  UNL1        0.1161
      2 C         142.8656  140.5589  159.0432 C.3     1  UNL1        0.0510
      3 C         143.6977  140.2344  157.8381 C.2     1  UNL1       -0.0044
      4 C         143.4249  138.9860  157.0525 C.2     1  UNL1        0.0689
      5 N         144.4042  138.9294  155.9176 N.2     1  UNL1       -0.2526
      6 C         145.2822  140.1427  156.0019 C.2     1  UNL1        0.0627
      7 C         146.4228  140.6173  155.1512 C.3     1  UNL1        0.0717
      8 C         147.1267  141.8984  155.4874 C.2     1  UNL1       -0.0198
      9 C         146.6901  142.7050  156.6743 C.2     1  UNL1       -0.0042
     10 C         145.5494  142.2304  157.5250 C.2     1  UNL1        0.0006
     11 C         144.8455  140.9493  157.1888 C.2     1  UNL1        0.0111
     12 C         142.3201  138.0622  157.4719 C.3     1  UNL1        0.0949
     13 N         141.4881  138.3867  158.6770 N.3     1  UNL1       -0.2887
     14 H         141.5883  137.6042  159.3235 H       1  UNL1        0.1239
     15 C         139.8684  141.1750  162.4814 C.ar    1  UNL1        0.0947
     16 C         139.4282  139.7434  162.5631 C.ar    1  UNL1        0.1187
     17 N         140.0836  138.9923  161.4423 N.ar    1  UNL1       -0.2282
     18 C         140.9287  139.9597  160.6678 C.ar    1  UNL1        0.1318
     19 N         140.7957  141.3087  161.3100 N.ar    1  UNL1       -0.3385
     20 H         141.2392  142.1365  161.0145 H       1  UNL1        0.1672
     21 F         138.2106  145.5916  166.1890 F       1  UNL1       -0.2025
     22 C         138.6250  144.4874  165.2621 C.ar    1  UNL1        0.1592
     23 C         137.7825  144.1563  164.0661 C.ar    1  UNL1        0.0328
     24 C         138.1969  143.0522  163.1392 C.ar    1  UNL1        0.0230
     25 C         139.4539  142.2792  163.4083 C.ar    1  UNL1        0.0986
     26 N         140.2965  142.6103  164.6043 N.ar    1  UNL1       -0.2400
     27 C         139.8820  143.7144  165.5312 C.ar    1  UNL1        0.1284
     28 C         142.0474  136.8139  156.6863 C.3     1  UNL1        0.0252
     29 C         140.9422  136.7922  155.6726 C.3     1  UNL1        0.0339
     30 C         140.6695  135.5437  154.8869 C.3     1  UNL1        0.1422
     31 O         141.5020  134.3170  155.1152 O.3     1  UNL1       -0.3538
     32 C         142.6073  134.3388  156.1290 C.3     1  UNL1        0.1422
     33 C         142.8800  135.5871  156.9145 C.3     1  UNL1        0.0339
@<TRIPOS>BOND
     1    21    22    1
     2    22    23   ar
     3    23    24   ar
     4    24    25   ar
     5    25    15    1
     6    15    16   ar
     7    16    17   ar
     8    17    18   ar
     9     1    18    1
    10     1     2    1
    11     2     3    1
    12     3     4    2
    13     4     5    1
    14     5     6    2
    15     6     7    1
    16     7     8    1
    17     8     9    2
    18     9    10    1
    19    10    11    2
    20     4    12    1
    21    12    28    1
    22    28    29    1
    23    29    30    1
    24    30    31    1
    25    31    32    1
    26    32    33    1
    27    12    13    1
    28    18    19   ar
    29    25    26   ar
    30    26    27   ar
    31    27    22   ar
    32    19    15   ar
    33    13     1    1
    34    11     3    1
    35    33    28    1
    36    11     6    1
    37    13    14    1
    38    19    20    1
