@<TRIPOS>MOLECULE
*****
 30 33 0 0 0
SMALL
GASTEIGER

@<TRIPOS>ATOM
      1 C         143.2156  139.4625  165.4812 C.3     1  UNL1        0.1467
      2 C         144.1993  144.3988  162.7413 C.3     1  UNL1        0.0896
      3 N         143.8100  143.2485  163.6218 N.3     1  UNL1       -0.2715
      4 C         142.9653  143.4874  164.8381 C.3     1  UNL1        0.0725
      5 C         142.5760  142.3371  165.7186 C.3     1  UNL1        0.0238
      6 C         143.0313  140.9479  165.3827 C.3     1  UNL1        0.0490
      7 C         143.8760  140.7091  164.1664 C.3     1  UNL1        0.0238
      8 C         144.2653  141.8594  163.2859 C.3     1  UNL1        0.0725
      9 C         142.2506  140.6710  166.6333 C.ar    1  UNL1       -0.0195
     10 C         140.9022  141.2978  166.8300 C.ar    1  UNL1       -0.0042
     11 C         140.1215  141.0209  168.0805 C.ar    1  UNL1        0.0005
     12 C         140.6893  140.1170  169.1343 C.ar    1  UNL1        0.0114
     13 C         142.0377  139.4901  168.9377 C.ar    1  UNL1        0.0574
     14 CL        142.6055  138.5862  169.9915 Cl      1  UNL1       -0.0823
     15 C         142.8184  139.7670  167.6871 C.ar    1  UNL1        0.0072
     16 O         143.2122  138.6224  164.2385 O.3     1  UNL1       -0.3470
     17 C         141.9155  138.1187  163.6772 C.3     1  UNL1        0.1874
     18 C         140.6173  138.7082  164.1431 C.ar    1  UNL1        0.0883
     19 C         139.8101  138.0073  165.1954 C.ar    1  UNL1        0.0211
     20 C         138.5119  138.5969  165.6613 C.ar    1  UNL1        0.0738
     21 C         138.0208  139.8872  165.0749 C.ar    1  UNL1        0.0186
     22 C         138.8280  140.5880  164.0225 C.ar    1  UNL1        0.0583
     23 N         140.1262  139.9985  163.5566 N.ar    1  UNL1       -0.2515
     24 C         137.7047  137.8961  166.7136 C.3     1  UNL1        0.4187
     25 F         136.8975  137.1954  167.7659 F       1  UNL1       -0.1659
     26 F         137.4232  139.2129  167.3745 F       1  UNL1       -0.1659
     27 F         137.9862  136.5793  166.0527 F       1  UNL1       -0.1659
     28 C         138.3369  141.8783  163.4361 C.3     1  UNL1        0.0403
     29 C         137.9945  142.7137  162.2381 C.3     1  UNL1        0.0063
     30 C         137.8286  143.2778  163.6181 C.3     1  UNL1        0.0063
@<TRIPOS>BOND
     1     2     3    1
     2     3     4    1
     3     4     5    1
     4     5     6    1
     5     6     1    1
     6     1    16    1
     7    16    17    1
     8    17    18    1
     9    18    19   ar
    10    19    20   ar
    11    20    24    1
    12    24    25    1
    13    24    26    1
    14    24    27    1
    15    20    21   ar
    16    21    22   ar
    17    22    28    1
    18    28    29    1
    19    29    30    1
    20    22    23   ar
    21     6     9    1
    22     9    10   ar
    23    10    11   ar
    24    11    12   ar
    25    12    13   ar
    26    13    14    1
    27    13    15   ar
    28     6     7    1
    29     7     8    1
    30     8     3    1
    31    23    18   ar
    32    15     9   ar
    33    30    28    1
@<TRIPOS>MOLECULE
*****
 30 33 0 0 0
SMALL
GASTEIGER

@<TRIPOS>ATOM
      1 C         142.2184  138.3600  163.9424 C.3     1  UNL1        0.1467
      2 C         142.4697  137.9268  158.2335 C.3     1  UNL1        0.0896
      3 N         142.1631  138.1092  159.6905 N.3     1  UNL1       -0.2715
      4 C         140.7929  138.5427  160.1200 C.3     1  UNL1        0.0725
      5 C         140.4863  138.7251  161.5770 C.3     1  UNL1        0.0238
      6 C         141.5499  138.4742  162.6044 C.3     1  UNL1        0.0490
      7 C         142.9202  138.0408  162.1748 C.3     1  UNL1        0.0238
      8 C         143.2267  137.8583  160.7179 C.3     1  UNL1        0.0725
      9 C         140.4118  138.8680  163.4986 C.ar    1  UNL1       -0.0195
     10 C         140.1266  138.0782  164.7415 C.ar    1  UNL1       -0.0042
     11 C         138.9885  138.4719  165.6358 C.ar    1  UNL1        0.0005
     12 C         138.1356  139.6555  165.2870 C.ar    1  UNL1        0.0114
     13 C         138.4207  140.4453  164.0441 C.ar    1  UNL1        0.0574
     14 CL        137.5678  141.6289  163.6954 Cl      1  UNL1       -0.0823
     15 C         139.5588  140.0515  163.1499 C.ar    1  UNL1        0.0072
     16 O         143.5993  138.9112  164.1404 O.3     1  UNL1       -0.3470
     17 C         143.8165  140.0786  165.0570 C.3     1  UNL1        0.1874
     18 C         142.6565  140.6794  165.7940 C.ar    1  UNL1        0.0883
     19 C         142.2316  140.1106  167.1154 C.ar    1  UNL1        0.0211
     20 C         141.0715  140.7115  167.8523 C.ar    1  UNL1        0.0738
     21 C         140.3364  141.8812  167.2681 C.ar    1  UNL1        0.0186
     22 C         140.7614  142.4501  165.9468 C.ar    1  UNL1        0.0583
     23 N         141.9214  141.8492  165.2097 N.ar    1  UNL1       -0.2515
     24 C         140.6465  140.1427  169.1737 C.3     1  UNL1        0.4187
     25 F         140.2215  139.5739  170.4950 F       1  UNL1       -0.1659
     26 F         142.0345  140.3427  169.7062 F       1  UNL1       -0.1659
     27 F         139.2585  139.9427  168.6411 F       1  UNL1       -0.1659
     28 C         140.0263  143.6198  165.3625 C.3     1  UNL1        0.0403
     29 C         139.8910  144.6697  164.2997 C.3     1  UNL1        0.0063
     30 C         138.8885  144.5959  165.4132 C.3     1  UNL1        0.0063
@<TRIPOS>BOND
     1     2     3    1
     2     3     4    1
     3     4     5    1
     4     5     6    1
     5     6     1    1
     6     1    16    1
     7    16    17    1
     8    17    18    1
     9    18    19   ar
    10    19    20   ar
    11    20    24    1
    12    24    25    1
    13    24    26    1
    14    24    27    1
    15    20    21   ar
    16    21    22   ar
    17    22    28    1
    18    28    29    1
    19    29    30    1
    20    22    23   ar
    21     6     9    1
    22     9    10   ar
    23    10    11   ar
    24    11    12   ar
    25    12    13   ar
    26    13    14    1
    27    13    15   ar
    28     6     7    1
    29     7     8    1
    30     8     3    1
    31    23    18   ar
    32    15     9   ar
    33    30    28    1
@<TRIPOS>MOLECULE
*****
 30 33 0 0 0
SMALL
GASTEIGER

@<TRIPOS>ATOM
      1 C         142.5139  139.6617  165.7950 C.3     1  UNL1        0.1467
      2 C         141.5344  141.5066  171.1315 C.3     1  UNL1        0.0896
      3 N         141.9056  141.2470  169.7016 N.3     1  UNL1       -0.2715
      4 C         142.6547  142.2858  168.9207 C.3     1  UNL1        0.0725
      5 C         143.0259  142.0262  167.4907 C.3     1  UNL1        0.0238
      6 C         142.6479  140.7279  166.8416 C.3     1  UNL1        0.0490
      7 C         141.8987  139.6891  167.6224 C.3     1  UNL1        0.0238
      8 C         141.5276  139.9487  169.0524 C.3     1  UNL1        0.0725
      9 C         143.3505  141.3964  165.6972 C.ar    1  UNL1       -0.0195
     10 C         144.1933  140.5856  164.7580 C.ar    1  UNL1       -0.0042
     11 C         144.8959  141.2540  163.6136 C.ar    1  UNL1        0.0005
     12 C         144.7558  142.7333  163.4087 C.ar    1  UNL1        0.0114
     13 C         143.9130  143.5442  164.3479 C.ar    1  UNL1        0.0574
     14 CL        143.7728  145.0235  164.1430 Cl      1  UNL1       -0.0823
     15 C         143.2104  142.8757  165.4923 C.ar    1  UNL1        0.0072
     16 O         141.1861  139.0050  165.5590 O.3     1  UNL1       -0.3470
     17 C         140.3002  139.4829  164.4468 C.3     1  UNL1        0.1874
     18 C         140.3252  140.9251  164.0351 C.ar    1  UNL1        0.0883
     19 C         139.6309  141.9568  164.8739 C.ar    1  UNL1        0.0211
     20 C         139.6560  143.3989  164.4621 C.ar    1  UNL1        0.0738
     21 C         140.3753  143.8094  163.2115 C.ar    1  UNL1        0.0186
     22 C         141.0697  142.7777  162.3726 C.ar    1  UNL1        0.0583
     23 N         141.0446  141.3356  162.7844 N.ar    1  UNL1       -0.2515
     24 C         138.9616  144.4306  165.3009 C.3     1  UNL1        0.4187
     25 F         138.2674  145.4623  166.1397 F       1  UNL1       -0.1659
     26 F         139.6863  143.9307  166.5154 F       1  UNL1       -0.1659
     27 F         138.2371  144.9304  164.0863 F       1  UNL1       -0.1659
     28 C         141.7890  143.1882  161.1221 C.3     1  UNL1        0.0403
     29 C         143.0041  143.1313  160.2442 C.3     1  UNL1        0.0063
     30 C         141.8202  143.9560  159.8339 C.3     1  UNL1        0.0063
@<TRIPOS>BOND
     1     2     3    1
     2     3     4    1
     3     4     5    1
     4     5     6    1
     5     6     1    1
     6     1    16    1
     7    16    17    1
     8    17    18    1
     9    18    19   ar
    10    19    20   ar
    11    20    24    1
    12    24    25    1
    13    24    26    1
    14    24    27    1
    15    20    21   ar
    16    21    22   ar
    17    22    28    1
    18    28    29    1
    19    29    30    1
    20    22    23   ar
    21     6     9    1
    22     9    10   ar
    23    10    11   ar
    24    11    12   ar
    25    12    13   ar
    26    13    14    1
    27    13    15   ar
    28     6     7    1
    29     7     8    1
    30     8     3    1
    31    23    18   ar
    32    15     9   ar
    33    30    28    1
@<TRIPOS>MOLECULE
*****
 30 33 0 0 0
SMALL
GASTEIGER

@<TRIPOS>ATOM
      1 C         139.7360  137.9215  164.5318 C.3     1  UNL1        0.1467
      2 C         137.9834  140.0280  159.4987 C.3     1  UNL1        0.0896
      3 N         138.6513  139.6138  160.7763 N.3     1  UNL1       -0.2715
      4 C         140.0128  140.1433  161.1167 C.3     1  UNL1        0.0725
      5 C         140.6807  139.7291  162.3944 C.3     1  UNL1        0.0238
      6 C         139.9871  138.7855  163.3316 C.3     1  UNL1        0.0490
      7 C         138.6256  138.2560  162.9912 C.3     1  UNL1        0.0238
      8 C         137.9577  138.6702  161.7135 C.3     1  UNL1        0.0725
      9 C         141.2614  139.0150  164.0889 C.ar    1  UNL1       -0.0195
     10 C         141.8455  137.9150  164.9248 C.ar    1  UNL1       -0.0042
     11 C         143.1198  138.1444  165.6821 C.ar    1  UNL1        0.0005
     12 C         143.8101  139.4738  165.6033 C.ar    1  UNL1        0.0114
     13 C         143.2260  140.5738  164.7674 C.ar    1  UNL1        0.0574
     14 CL        143.9163  141.9032  164.6886 Cl      1  UNL1       -0.0823
     15 C         141.9517  140.3444  164.0101 C.ar    1  UNL1        0.0072
     16 O         138.4517  138.0534  165.2954 O.3     1  UNL1       -0.3470
     17 C         138.4160  138.8383  166.5732 C.3     1  UNL1        0.1874
     18 C         139.3139  140.0270  166.7484 C.ar    1  UNL1        0.0883
     19 C         140.4604  139.9651  167.7138 C.ar    1  UNL1        0.0211
     20 C         141.3582  141.1538  167.8890 C.ar    1  UNL1        0.0738
     21 C         141.1098  142.4044  167.0989 C.ar    1  UNL1        0.0186
     22 C         139.9633  142.4663  166.1336 C.ar    1  UNL1        0.0583
     23 N         139.0654  141.2776  165.9583 N.ar    1  UNL1       -0.2515
     24 C         142.5047  141.0920  168.8544 C.3     1  UNL1        0.4187
     25 F         143.6512  141.0302  169.8196 F       1  UNL1       -0.1659
     26 F         143.2377  142.1243  168.0499 F       1  UNL1       -0.1659
     27 F         141.7717  140.0597  169.6588 F       1  UNL1       -0.1659
     28 C         139.7148  143.7169  165.3435 C.3     1  UNL1        0.0403
     29 C         138.8381  144.8854  165.0025 C.3     1  UNL1        0.0063
     30 C         140.1609  144.7147  164.3161 C.3     1  UNL1        0.0063
@<TRIPOS>BOND
     1     2     3    1
     2     3     4    1
     3     4     5    1
     4     5     6    1
     5     6     1    1
     6     1    16    1
     7    16    17    1
     8    17    18    1
     9    18    19   ar
    10    19    20   ar
    11    20    24    1
    12    24    25    1
    13    24    26    1
    14    24    27    1
    15    20    21   ar
    16    21    22   ar
    17    22    28    1
    18    28    29    1
    19    29    30    1
    20    22    23   ar
    21     6     9    1
    22     9    10   ar
    23    10    11   ar
    24    11    12   ar
    25    12    13   ar
    26    13    14    1
    27    13    15   ar
    28     6     7    1
    29     7     8    1
    30     8     3    1
    31    23    18   ar
    32    15     9   ar
    33    30    28    1
@<TRIPOS>MOLECULE
*****
 30 33 0 0 0
SMALL
GASTEIGER

@<TRIPOS>ATOM
      1 C         141.8467  142.5200  165.9622 C.3     1  UNL1        0.1467
      2 C         140.9569  140.6876  171.3188 C.3     1  UNL1        0.0896
      3 N         141.3198  140.9519  169.8875 N.3     1  UNL1       -0.2715
      4 C         142.1439  139.9560  169.1266 C.3     1  UNL1        0.0725
      5 C         142.5068  140.2202  167.6953 C.3     1  UNL1        0.0238
      6 C         142.0456  141.4803  167.0250 C.3     1  UNL1        0.0490
      7 C         141.2216  142.4762  167.7859 C.3     1  UNL1        0.0238
      8 C         140.8587  142.2120  169.2172 C.3     1  UNL1        0.0725
      9 C         142.8006  140.8454  165.8949 C.ar    1  UNL1       -0.0195
     10 C         142.4312  139.4695  165.4256 C.ar    1  UNL1       -0.0042
     11 C         143.1862  138.8346  164.2956 C.ar    1  UNL1        0.0005
     12 C         144.3105  139.5758  163.6349 C.ar    1  UNL1        0.0114
     13 C         144.6800  140.9517  164.1042 C.ar    1  UNL1        0.0574
     14 CL        145.8043  141.6929  163.4435 Cl      1  UNL1       -0.0823
     15 C         143.9250  141.5866  165.2343 C.ar    1  UNL1        0.0072
     16 O         140.5327  143.2345  165.8486 O.3     1  UNL1       -0.3470
     17 C         139.5211  142.7875  164.8352 C.3     1  UNL1        0.1874
     18 C         139.3869  141.3313  164.5014 C.ar    1  UNL1        0.0883
     19 C         138.7879  140.3851  165.4995 C.ar    1  UNL1        0.0211
     20 C         138.6538  138.9290  165.1655 C.ar    1  UNL1        0.0738
     21 C         139.1184  138.4189  163.8337 C.ar    1  UNL1        0.0186
     22 C         139.7174  139.3651  162.8356 C.ar    1  UNL1        0.0583
     23 N         139.8516  140.8213  163.1694 N.ar    1  UNL1       -0.2515
     24 C         138.0549  137.9827  166.1636 C.3     1  UNL1        0.4187
     25 F         137.4560  137.0364  167.1615 F       1  UNL1       -0.1659
     26 F         138.7320  136.8324  165.4791 F       1  UNL1       -0.1659
     27 F         137.3778  139.1330  166.8479 F       1  UNL1       -0.1659
     28 C         140.1820  138.8551  161.5037 C.3     1  UNL1        0.0403
     29 C         141.2951  138.4359  160.5896 C.3     1  UNL1        0.0063
     30 C         139.8741  138.3908  160.1110 C.3     1  UNL1        0.0063
@<TRIPOS>BOND
     1     2     3    1
     2     3     4    1
     3     4     5    1
     4     5     6    1
     5     6     1    1
     6     1    16    1
     7    16    17    1
     8    17    18    1
     9    18    19   ar
    10    19    20   ar
    11    20    24    1
    12    24    25    1
    13    24    26    1
    14    24    27    1
    15    20    21   ar
    16    21    22   ar
    17    22    28    1
    18    28    29    1
    19    29    30    1
    20    22    23   ar
    21     6     9    1
    22     9    10   ar
    23    10    11   ar
    24    11    12   ar
    25    12    13   ar
    26    13    14    1
    27    13    15   ar
    28     6     7    1
    29     7     8    1
    30     8     3    1
    31    23    18   ar
    32    15     9   ar
    33    30    28    1
@<TRIPOS>MOLECULE
*****
 30 33 0 0 0
SMALL
GASTEIGER

@<TRIPOS>ATOM
      1 C         141.3165  141.0480  162.1392 C.3     1  UNL1        0.1467
      2 C         142.6548  137.3481  157.9725 C.3     1  UNL1        0.0896
      3 N         142.4262  138.1553  159.2160 N.3     1  UNL1       -0.2715
      4 C         142.9547  137.6698  160.5331 C.3     1  UNL1        0.0725
      5 C         142.7261  138.4770  161.7765 C.3     1  UNL1        0.0238
      6 C         141.9688  139.7697  161.7028 C.3     1  UNL1        0.0490
      7 C         141.4403  140.2552  160.3857 C.3     1  UNL1        0.0238
      8 C         141.6689  139.4480  159.1423 C.3     1  UNL1        0.0725
      9 C         142.2709  139.7281  163.1716 C.ar    1  UNL1       -0.0195
     10 C         142.0079  138.4771  163.9562 C.ar    1  UNL1       -0.0042
     11 C         142.3099  138.4355  165.4249 C.ar    1  UNL1        0.0005
     12 C         142.8749  139.6450  166.1089 C.ar    1  UNL1        0.0114
     13 C         143.1379  140.8961  165.3243 C.ar    1  UNL1        0.0574
     14 CL        143.7029  142.1056  166.0083 Cl      1  UNL1       -0.0823
     15 C         142.8359  140.9376  163.8556 C.ar    1  UNL1        0.0072
     16 O         139.8366  141.2292  161.9742 O.3     1  UNL1       -0.3470
     17 C         139.0230  141.8111  163.0921 C.3     1  UNL1        0.1874
     18 C         139.1208  141.2307  164.4718 C.ar    1  UNL1        0.0883
     19 C         138.5548  139.8708  164.7553 C.ar    1  UNL1        0.0211
     20 C         138.6526  139.2905  166.1350 C.ar    1  UNL1        0.0738
     21 C         139.3165  140.0700  167.2312 C.ar    1  UNL1        0.0186
     22 C         139.8826  141.4299  166.9477 C.ar    1  UNL1        0.0583
     23 N         139.7847  142.0102  165.5680 N.ar    1  UNL1       -0.2515
     24 C         138.0866  137.9306  166.4186 C.3     1  UNL1        0.4187
     25 F         137.5205  136.5708  166.7022 F       1  UNL1       -0.1659
     26 F         137.2564  138.5074  167.5268 F       1  UNL1       -0.1659
     27 F         138.9168  137.3540  165.3103 F       1  UNL1       -0.1659
     28 C         140.5464  142.2093  168.0439 C.3     1  UNL1        0.0403
     29 C         141.7806  142.5744  168.8144 C.3     1  UNL1        0.0063
     30 C         140.4623  143.1942  169.1721 C.3     1  UNL1        0.0063
@<TRIPOS>BOND
     1     2     3    1
     2     3     4    1
     3     4     5    1
     4     5     6    1
     5     6     1    1
     6     1    16    1
     7    16    17    1
     8    17    18    1
     9    18    19   ar
    10    19    20   ar
    11    20    24    1
    12    24    25    1
    13    24    26    1
    14    24    27    1
    15    20    21   ar
    16    21    22   ar
    17    22    28    1
    18    28    29    1
    19    29    30    1
    20    22    23   ar
    21     6     9    1
    22     9    10   ar
    23    10    11   ar
    24    11    12   ar
    25    12    13   ar
    26    13    14    1
    27    13    15   ar
    28     6     7    1
    29     7     8    1
    30     8     3    1
    31    23    18   ar
    32    15     9   ar
    33    30    28    1
@<TRIPOS>MOLECULE
*****
 30 33 0 0 0
SMALL
GASTEIGER

@<TRIPOS>ATOM
      1 C         141.9828  138.1499  163.9658 C.3     1  UNL1        0.1467
      2 C         142.0394  138.1004  158.2355 C.3     1  UNL1        0.0896
      3 N         141.7903  138.2065  159.7108 N.3     1  UNL1       -0.2715
      4 C         140.4785  138.7315  160.2141 C.3     1  UNL1        0.0725
      5 C         140.2294  138.8377  161.6895 C.3     1  UNL1        0.0238
      6 C         141.2922  138.4189  162.6616 C.3     1  UNL1        0.0490
      7 C         142.6041  137.8939  162.1583 C.3     1  UNL1        0.0238
      8 C         142.8532  137.7877  160.6829 C.3     1  UNL1        0.0725
      9 C         140.2201  138.8505  163.6178 C.ar    1  UNL1       -0.0195
     10 C         139.8893  137.9991  164.8076 C.ar    1  UNL1       -0.0042
     11 C         138.8172  138.4306  165.7639 C.ar    1  UNL1        0.0005
     12 C         138.0760  139.7136  165.5302 C.ar    1  UNL1        0.0114
     13 C         138.4067  140.5650  164.3404 C.ar    1  UNL1        0.0574
     14 CL        137.6655  141.8479  164.1067 Cl      1  UNL1       -0.0823
     15 C         139.4789  140.1334  163.3841 C.ar    1  UNL1        0.0072
     16 O         143.3899  138.6228  164.1808 O.3     1  UNL1       -0.3470
     17 C         143.6989  139.5736  165.2992 C.3     1  UNL1        0.1874
     18 C         142.6141  140.4381  165.8699 C.ar    1  UNL1        0.0883
     19 C         142.1992  141.6903  165.1557 C.ar    1  UNL1        0.0211
     20 C         141.1144  142.5548  165.7265 C.ar    1  UNL1        0.0738
     21 C         140.4444  142.1672  167.0113 C.ar    1  UNL1        0.0186
     22 C         140.8593  140.9150  167.7255 C.ar    1  UNL1        0.0583
     23 N         141.9442  140.0505  167.1548 N.ar    1  UNL1       -0.2515
     24 C         140.6994  143.8070  165.0123 C.3     1  UNL1        0.4187
     25 F         140.2845  145.0591  164.2982 F       1  UNL1       -0.1659
     26 F         141.9320  143.7298  164.1609 F       1  UNL1       -0.1659
     27 F         139.4669  143.8840  165.8637 F       1  UNL1       -0.1659
     28 C         140.1894  140.5275  169.0104 C.3     1  UNL1        0.0403
     29 C         138.9395  140.3357  169.8173 C.3     1  UNL1        0.0063
     30 C         140.2786  140.0480  170.4289 C.3     1  UNL1        0.0063
@<TRIPOS>BOND
     1     2     3    1
     2     3     4    1
     3     4     5    1
     4     5     6    1
     5     6     1    1
     6     1    16    1
     7    16    17    1
     8    17    18    1
     9    18    19   ar
    10    19    20   ar
    11    20    24    1
    12    24    25    1
    13    24    26    1
    14    24    27    1
    15    20    21   ar
    16    21    22   ar
    17    22    28    1
    18    28    29    1
    19    29    30    1
    20    22    23   ar
    21     6     9    1
    22     9    10   ar
    23    10    11   ar
    24    11    12   ar
    25    12    13   ar
    26    13    14    1
    27    13    15   ar
    28     6     7    1
    29     7     8    1
    30     8     3    1
    31    23    18   ar
    32    15     9   ar
    33    30    28    1
@<TRIPOS>MOLECULE
*****
 30 33 0 0 0
SMALL
GASTEIGER

@<TRIPOS>ATOM
      1 C         139.9970  137.8331  164.2099 C.3     1  UNL1        0.1467
      2 C         139.4068  139.2246  158.6820 C.3     1  UNL1        0.0896
      3 N         139.7654  139.0102  160.1227 N.3     1  UNL1       -0.2715
      4 C         140.9690  139.6898  160.7051 C.3     1  UNL1        0.0725
      5 C         141.3276  139.4754  162.1458 C.3     1  UNL1        0.0238
      6 C         140.4826  138.5814  163.0039 C.3     1  UNL1        0.0490
      7 C         139.2789  137.9018  162.4215 C.3     1  UNL1        0.0238
      8 C         138.9204  138.1162  160.9809 C.3     1  UNL1        0.0725
      9 C         141.5176  139.0012  164.0052 C.ar    1  UNL1       -0.0195
     10 C         142.0787  137.9983  164.9692 C.ar    1  UNL1       -0.0042
     11 C         143.1137  138.4180  165.9705 C.ar    1  UNL1        0.0005
     12 C         143.5876  139.8407  166.0077 C.ar    1  UNL1        0.0114
     13 C         143.0265  140.8437  165.0438 C.ar    1  UNL1        0.0574
     14 CL        143.5004  142.2663  165.0810 Cl      1  UNL1       -0.0823
     15 C         141.9915  140.4239  164.0425 C.ar    1  UNL1        0.0072
     16 O         138.5842  138.0083  164.6825 O.3     1  UNL1       -0.3470
     17 C         138.2941  138.8681  165.8770 C.3     1  UNL1        0.1874
     18 C         138.8599  140.2550  165.9579 C.ar    1  UNL1        0.0883
     19 C         138.4415  141.2951  164.9612 C.ar    1  UNL1        0.0211
     20 C         139.0073  142.6818  165.0422 C.ar    1  UNL1        0.0738
     21 C         139.9915  143.0286  166.1197 C.ar    1  UNL1        0.0186
     22 C         140.4100  141.9886  167.1163 C.ar    1  UNL1        0.0583
     23 N         139.8442  140.6017  167.0354 N.ar    1  UNL1       -0.2515
     24 C         138.5889  143.7220  164.0456 C.3     1  UNL1        0.4187
     25 F         138.1706  144.7620  163.0490 F       1  UNL1       -0.1659
     26 F         139.6338  143.2266  163.0901 F       1  UNL1       -0.1659
     27 F         137.5441  144.2172  165.0012 F       1  UNL1       -0.1659
     28 C         141.3942  142.3354  168.1938 C.3     1  UNL1        0.0403
     29 C         141.6954  142.9451  169.5309 C.3     1  UNL1        0.0063
     30 C         142.7976  142.3265  168.7232 C.3     1  UNL1        0.0063
@<TRIPOS>BOND
     1     2     3    1
     2     3     4    1
     3     4     5    1
     4     5     6    1
     5     6     1    1
     6     1    16    1
     7    16    17    1
     8    17    18    1
     9    18    19   ar
    10    19    20   ar
    11    20    24    1
    12    24    25    1
    13    24    26    1
    14    24    27    1
    15    20    21   ar
    16    21    22   ar
    17    22    28    1
    18    28    29    1
    19    29    30    1
    20    22    23   ar
    21     6     9    1
    22     9    10   ar
    23    10    11   ar
    24    11    12   ar
    25    12    13   ar
    26    13    14    1
    27    13    15   ar
    28     6     7    1
    29     7     8    1
    30     8     3    1
    31    23    18   ar
    32    15     9   ar
    33    30    28    1
@<TRIPOS>MOLECULE
*****
 30 33 0 0 0
SMALL
GASTEIGER

@<TRIPOS>ATOM
      1 C         140.0728  138.7780  164.1709 C.3     1  UNL1        0.1467
      2 C         139.7531  138.3920  158.4621 C.3     1  UNL1        0.0896
      3 N         140.0874  138.5006  159.9203 N.3     1  UNL1       -0.2715
      4 C         141.5198  138.5856  160.3571 C.3     1  UNL1        0.0725
      5 C         141.8541  138.6941  161.8154 C.3     1  UNL1        0.0238
      6 C         140.7559  138.7177  162.8368 C.3     1  UNL1        0.0490
      7 C         139.3235  138.6327  162.4000 C.3     1  UNL1        0.0238
      8 C         138.9892  138.5241  160.9418 C.3     1  UNL1        0.0725
      9 C         141.9512  138.8236  163.7370 C.ar    1  UNL1       -0.0195
     10 C         142.0011  138.0369  165.0131 C.ar    1  UNL1       -0.0042
     11 C         143.1963  138.1428  165.9132 C.ar    1  UNL1        0.0005
     12 C         144.3416  139.0355  165.5372 C.ar    1  UNL1        0.0114
     13 C         144.2917  139.8223  164.2611 C.ar    1  UNL1        0.0574
     14 CL        145.4369  140.7151  163.8850 Cl      1  UNL1       -0.0823
     15 C         143.0964  139.7164  163.3609 C.ar    1  UNL1        0.0072
     16 O         138.9097  139.7027  164.3768 O.3     1  UNL1       -0.3470
     17 C         139.0125  140.8293  165.3618 C.3     1  UNL1        0.1874
     18 C         140.3582  141.3685  165.7468 C.ar    1  UNL1        0.0883
     19 C         140.9706  140.9875  167.0621 C.ar    1  UNL1        0.0211
     20 C         142.3163  141.5267  167.4471 C.ar    1  UNL1        0.0738
     21 C         143.0497  142.4468  166.5168 C.ar    1  UNL1        0.0186
     22 C         142.4374  142.8278  165.2015 C.ar    1  UNL1        0.0583
     23 N         141.0917  142.2887  164.8165 N.ar    1  UNL1       -0.2515
     24 C         142.9287  141.1457  168.7624 C.3     1  UNL1        0.4187
     25 F         143.5410  140.7647  170.0776 F       1  UNL1       -0.1659
     26 F         142.2843  139.7942  168.6709 F       1  UNL1       -0.1659
     27 F         143.5730  142.4972  168.8538 F       1  UNL1       -0.1659
     28 C         143.1709  143.7480  164.2713 C.3     1  UNL1        0.0403
     29 C         143.9378  143.9705  163.0015 C.3     1  UNL1        0.0063
     30 C         143.6744  145.1190  163.9298 C.3     1  UNL1        0.0063
@<TRIPOS>BOND
     1     2     3    1
     2     3     4    1
     3     4     5    1
     4     5     6    1
     5     6     1    1
     6     1    16    1
     7    16    17    1
     8    17    18    1
     9    18    19   ar
    10    19    20   ar
    11    20    24    1
    12    24    25    1
    13    24    26    1
    14    24    27    1
    15    20    21   ar
    16    21    22   ar
    17    22    28    1
    18    28    29    1
    19    29    30    1
    20    22    23   ar
    21     6     9    1
    22     9    10   ar
    23    10    11   ar
    24    11    12   ar
    25    12    13   ar
    26    13    14    1
    27    13    15   ar
    28     6     7    1
    29     7     8    1
    30     8     3    1
    31    23    18   ar
    32    15     9   ar
    33    30    28    1
