@<TRIPOS>MOLECULE
*****
 37 40 0 0 0
SMALL
GASTEIGER

@<TRIPOS>ATOM
      1 C         141.1323  141.5415  165.1948 C.3     1  UNL1        0.0778
      2 C         140.1481  143.7702  164.2924 C.ar    1  UNL1        0.2211
      3 N         139.9811  144.7593  163.1772 N.ar    1  UNL1       -0.2119
      4 C         140.6315  144.5088  161.8489 C.ar    1  UNL1        0.0844
      5 C         140.4645  145.4978  160.7336 C.ar    1  UNL1        0.0197
      6 C         141.1149  145.2473  159.4054 C.ar    1  UNL1        0.0082
      7 C         141.9323  144.0077  159.1925 C.ar    1  UNL1        0.0347
      8 BR        142.5827  143.7572  157.8642 Br      1  UNL1       -0.0490
      9 C         142.0993  143.0187  160.3077 C.ar    1  UNL1        0.0082
     10 C         141.4489  143.2692  161.6359 C.ar    1  UNL1        0.0181
     11 C         141.6158  142.2801  162.7512 C.ar    1  UNL1        0.0023
     12 C         140.9654  142.5306  164.0794 C.ar    1  UNL1        0.0373
     13 C         138.4103  145.0468  165.7417 C.3     1  UNL1        0.2542
     14 O         139.4976  144.0207  165.6207 O.3     1  UNL1       -0.4563
     15 C         140.3845  140.2416  165.1627 C.ar    1  UNL1       -0.0160
     16 C         140.7050  139.2177  164.1145 C.ar    1  UNL1       -0.0039
     17 C         139.9571  137.9178  164.0824 C.ar    1  UNL1       -0.0006
     18 C         138.8887  137.6419  165.0984 C.ar    1  UNL1       -0.0043
     19 C         138.5682  138.6659  166.1467 C.ar    1  UNL1       -0.0222
     20 C         137.4998  138.3900  167.1627 C.3     1  UNL1        0.0310
     21 C         139.3160  139.9658  166.1788 C.ar    1  UNL1       -0.0081
     22 C         142.0471  141.8523  166.3422 C.3     1  UNL1        0.1202
     23 O         140.8621  142.2052  167.1914 O.3     1  UNL1       -0.3818
     24 H         140.1275  142.4828  166.6220 H       1  UNL1        0.2107
     25 C         143.2321  141.4994  165.4930 C.ar    1  UNL1        0.0556
     26 C         143.5679  140.0604  165.2347 C.ar    1  UNL1        0.0042
     27 C         144.7529  139.7075  164.3856 C.ar    1  UNL1        0.0206
     28 C         145.6022  140.7935  163.7946 C.ar    1  UNL1        0.1020
     29 N         145.2665  142.2324  164.0528 N.ar    1  UNL1       -0.2103
     30 C         144.0814  142.5854  164.9020 C.ar    1  UNL1        0.2229
     31 O         143.7457  144.0243  165.1602 O.3     1  UNL1       -0.4563
     32 C         143.7567  145.0114  164.0308 C.3     1  UNL1        0.2542
     33 C         142.9619  142.1631  167.4896 C.3     1  UNL1        0.0493
     34 C         142.4021  142.3300  168.8711 C.3     1  UNL1        0.0750
     35 N         142.1496  141.1254  169.7286 N.3     1  UNL1       -0.2702
     36 C         141.5460  141.2886  171.0921 C.3     1  UNL1        0.0897
     37 C         142.5009  139.7577  169.2227 C.3     1  UNL1        0.0897
@<TRIPOS>BOND
     1    13    14    1
     2    14     2    1
     3     2     3   ar
     4     3     4   ar
     5     4     5   ar
     6     5     6   ar
     7     6     7   ar
     8     7     8    1
     9     7     9   ar
    10     9    10   ar
    11    10    11   ar
    12    11    12   ar
    13    12     1    1
    14     1    15    1
    15    15    16   ar
    16    16    17   ar
    17    17    18   ar
    18    18    19   ar
    19    19    20    1
    20    19    21   ar
    21     1    22    1
    22    22    23    1
    23    22    33    1
    24    33    34    1
    25    34    35    1
    26    35    36    1
    27    35    37    1
    28    22    25    1
    29    25    26   ar
    30    26    27   ar
    31    27    28   ar
    32    28    29   ar
    33    29    30   ar
    34    30    31    1
    35    31    32    1
    36    12     2   ar
    37    21    15   ar
    38    30    25   ar
    39    10     4   ar
    40    23    24    1
@<TRIPOS>MOLECULE
*****
 37 40 0 0 0
SMALL
GASTEIGER

@<TRIPOS>ATOM
      1 C         141.6283  140.8092  164.3403 C.3     1  UNL1        0.0778
      2 C         143.4313  140.9062  162.4722 C.ar    1  UNL1        0.2211
      3 N         143.8276  141.2444  161.0656 N.ar    1  UNL1       -0.2119
      4 C         142.8171  141.8238  160.1204 C.ar    1  UNL1        0.0844
      5 C         143.2134  142.1620  158.7138 C.ar    1  UNL1        0.0197
      6 C         142.2030  142.7414  157.7687 C.ar    1  UNL1        0.0082
      7 C         140.7963  142.9826  158.2302 C.ar    1  UNL1        0.0347
      8 BR        139.7858  143.5621  157.2850 Br      1  UNL1       -0.0490
      9 C         140.4000  142.6444  159.6368 C.ar    1  UNL1        0.0082
     10 C         141.4104  142.0650  160.5819 C.ar    1  UNL1        0.0181
     11 C         141.0141  141.7268  161.9886 C.ar    1  UNL1        0.0023
     12 C         142.0246  141.1474  162.9337 C.ar    1  UNL1        0.0373
     13 C         145.6077  141.1553  163.8691 C.3     1  UNL1        0.2542
     14 O         144.4417  140.3267  163.4174 O.3     1  UNL1       -0.4563
     15 C         140.6976  139.6624  164.6022 C.ar    1  UNL1       -0.0160
     16 C         140.7738  138.4263  163.7559 C.ar    1  UNL1       -0.0039
     17 C         139.8431  137.2795  164.0177 C.ar    1  UNL1       -0.0006
     18 C         138.8361  137.3687  165.1258 C.ar    1  UNL1       -0.0043
     19 C         138.7598  138.6048  165.9722 C.ar    1  UNL1       -0.0222
     20 C         137.7529  138.6941  167.0803 C.3     1  UNL1        0.0310
     21 C         139.6906  139.7517  165.7104 C.ar    1  UNL1       -0.0081
     22 C         142.1627  141.6178  165.4851 C.3     1  UNL1        0.1202
     23 O         142.9794  140.4424  165.9340 O.3     1  UNL1       -0.3818
     24 H         142.5631  139.6225  165.6251 H       1  UNL1        0.2107
     25 C         141.3461  142.7931  165.0362 C.ar    1  UNL1        0.0556
     26 C         139.8641  142.8090  165.2678 C.ar    1  UNL1        0.0042
     27 C         139.0474  143.9844  164.8189 C.ar    1  UNL1        0.0206
     28 C         139.7126  145.1438  164.1384 C.ar    1  UNL1        0.1020
     29 N         141.1945  145.1279  163.9067 N.ar    1  UNL1       -0.2103
     30 C         142.0113  143.9525  164.3556 C.ar    1  UNL1        0.2229
     31 O         143.4932  143.9366  164.1239 O.3     1  UNL1       -0.4563
     32 C         144.0567  144.4613  162.8366 C.3     1  UNL1        0.2542
     33 C         142.6972  142.4263  166.6298 C.3     1  UNL1        0.0493
     34 C         142.7741  141.8246  168.0017 C.3     1  UNL1        0.0750
     35 N         141.5218  141.3776  168.6959 N.3     1  UNL1       -0.2702
     36 C         140.4410  142.3704  169.0060 C.3     1  UNL1        0.0897
     37 C         141.3503  139.9378  169.0801 C.3     1  UNL1        0.0897
@<TRIPOS>BOND
     1    13    14    1
     2    14     2    1
     3     2     3   ar
     4     3     4   ar
     5     4     5   ar
     6     5     6   ar
     7     6     7   ar
     8     7     8    1
     9     7     9   ar
    10     9    10   ar
    11    10    11   ar
    12    11    12   ar
    13    12     1    1
    14     1    15    1
    15    15    16   ar
    16    16    17   ar
    17    17    18   ar
    18    18    19   ar
    19    19    20    1
    20    19    21   ar
    21     1    22    1
    22    22    23    1
    23    22    33    1
    24    33    34    1
    25    34    35    1
    26    35    36    1
    27    35    37    1
    28    22    25    1
    29    25    26   ar
    30    26    27   ar
    31    27    28   ar
    32    28    29   ar
    33    29    30   ar
    34    30    31    1
    35    31    32    1
    36    12     2   ar
    37    21    15   ar
    38    30    25   ar
    39    10     4   ar
    40    23    24    1
@<TRIPOS>MOLECULE
*****
 37 40 0 0 0
SMALL
GASTEIGER

@<TRIPOS>ATOM
      1 C         141.0007  141.7837  165.4425 C.3     1  UNL1        0.0778
      2 C         140.1569  144.0336  164.4544 C.ar    1  UNL1        0.2211
      3 N         140.0475  144.9860  163.3008 N.ar    1  UNL1       -0.2119
      4 C         140.6725  144.6410  161.9815 C.ar    1  UNL1        0.0844
      5 C         140.5630  145.5935  160.8279 C.ar    1  UNL1        0.0197
      6 C         141.1880  145.2485  159.5087 C.ar    1  UNL1        0.0082
      7 C         141.9224  143.9511  159.3431 C.ar    1  UNL1        0.0347
      8 BR        142.5474  143.6062  158.0238 Br      1  UNL1       -0.0490
      9 C         142.0318  142.9987  160.4967 C.ar    1  UNL1        0.0082
     10 C         141.4069  143.3436  161.8159 C.ar    1  UNL1        0.0181
     11 C         141.5163  142.3912  162.9696 C.ar    1  UNL1        0.0023
     12 C         140.8913  142.7362  164.2888 C.ar    1  UNL1        0.0373
     13 C         138.2062  145.0791  165.8152 C.3     1  UNL1        0.2542
     14 O         139.5319  144.3785  165.7737 O.3     1  UNL1       -0.4563
     15 C         140.1421  140.5545  165.4842 C.ar    1  UNL1       -0.0160
     16 C         139.4732  140.1499  166.7644 C.ar    1  UNL1       -0.0039
     17 C         138.6146  138.9207  166.8061 C.ar    1  UNL1       -0.0006
     18 C         138.4248  138.0960  165.5677 C.ar    1  UNL1       -0.0043
     19 C         139.0938  138.5005  164.2874 C.ar    1  UNL1       -0.0222
     20 C         138.9040  137.6758  163.0489 C.3     1  UNL1        0.0310
     21 C         139.9524  139.7297  164.2457 C.ar    1  UNL1       -0.0081
     22 C         141.9686  142.0605  166.5544 C.3     1  UNL1        0.1202
     23 O         140.8257  142.3972  167.4656 O.3     1  UNL1       -0.3818
     24 H         140.0676  142.6928  166.9376 H       1  UNL1        0.2107
     25 C         143.1116  141.7238  165.6432 C.ar    1  UNL1        0.0556
     26 C         143.8485  142.8177  164.9287 C.ar    1  UNL1        0.0042
     27 C         144.9915  142.4811  164.0176 C.ar    1  UNL1        0.0206
     28 C         145.3975  141.0505  163.8208 C.ar    1  UNL1        0.1020
     29 N         144.6607  139.9567  164.5352 N.ar    1  UNL1       -0.2103
     30 C         143.5176  140.2933  165.4465 C.ar    1  UNL1        0.2229
     31 O         142.7808  139.1995  166.1609 O.3     1  UNL1       -0.4563
     32 C         142.6592  137.8427  165.5329 C.3     1  UNL1        0.2542
     33 C         142.9366  142.3373  167.6663 C.3     1  UNL1        0.0493
     34 C         142.4328  142.5569  169.0620 C.3     1  UNL1        0.0750
     35 N         142.0980  141.3818  169.9321 N.3     1  UNL1       -0.2702
     36 C         142.6192  140.0188  169.5848 C.3     1  UNL1        0.0897
     37 C         141.2419  141.5696  171.1494 C.3     1  UNL1        0.0897
@<TRIPOS>BOND
     1    13    14    1
     2    14     2    1
     3     2     3   ar
     4     3     4   ar
     5     4     5   ar
     6     5     6   ar
     7     6     7   ar
     8     7     8    1
     9     7     9   ar
    10     9    10   ar
    11    10    11   ar
    12    11    12   ar
    13    12     1    1
    14     1    15    1
    15    15    16   ar
    16    16    17   ar
    17    17    18   ar
    18    18    19   ar
    19    19    20    1
    20    19    21   ar
    21     1    22    1
    22    22    23    1
    23    22    33    1
    24    33    34    1
    25    34    35    1
    26    35    36    1
    27    35    37    1
    28    22    25    1
    29    25    26   ar
    30    26    27   ar
    31    27    28   ar
    32    28    29   ar
    33    29    30   ar
    34    30    31    1
    35    31    32    1
    36    12     2   ar
    37    21    15   ar
    38    30    25   ar
    39    10     4   ar
    40    23    24    1
@<TRIPOS>MOLECULE
*****
 37 40 0 0 0
SMALL
GASTEIGER

@<TRIPOS>ATOM
      1 C         141.4280  140.8211  162.0989 C.3     1  UNL1        0.0778
      2 C         139.9572  139.4923  163.7785 C.ar    1  UNL1        0.2211
      3 N         139.4353  139.2890  165.1700 N.ar    1  UNL1       -0.2119
      4 C         139.8621  140.2111  166.2734 C.ar    1  UNL1        0.0844
      5 C         139.3401  140.0078  167.6648 C.ar    1  UNL1        0.0197
      6 C         139.7670  140.9299  168.7682 C.ar    1  UNL1        0.0082
      7 C         140.7158  142.0554  168.4801 C.ar    1  UNL1        0.0347
      8 BR        141.1427  142.9776  169.5835 Br      1  UNL1       -0.0490
      9 C         141.2378  142.2588  167.0886 C.ar    1  UNL1        0.0082
     10 C         140.8109  141.3366  165.9853 C.ar    1  UNL1        0.0181
     11 C         141.3329  141.5399  164.5938 C.ar    1  UNL1        0.0023
     12 C         140.9061  140.6178  163.4904 C.ar    1  UNL1        0.0373
     13 C         138.1022  138.5598  162.2167 C.3     1  UNL1        0.2542
     14 O         139.5304  138.5702  162.6751 O.3     1  UNL1       -0.4563
     15 C         141.0104  142.0266  161.3099 C.ar    1  UNL1       -0.0160
     16 C         140.9801  141.9685  159.8114 C.ar    1  UNL1       -0.0039
     17 C         140.5625  143.1740  159.0224 C.ar    1  UNL1       -0.0006
     18 C         140.1752  144.4375  159.7320 C.ar    1  UNL1       -0.0043
     19 C         140.2055  144.4956  161.2306 C.ar    1  UNL1       -0.0222
     20 C         139.8182  145.7591  161.9401 C.3     1  UNL1        0.0310
     21 C         140.6231  143.2901  162.0196 C.ar    1  UNL1       -0.0081
     22 C         142.3676  139.8190  161.4964 C.3     1  UNL1        0.1202
     23 O         141.2293  139.2120  160.7310 O.3     1  UNL1       -0.3818
     24 H         140.3966  139.3880  161.1962 H       1  UNL1        0.2107
     25 C         143.5058  140.4260  162.2618 C.ar    1  UNL1        0.0556
     26 C         144.1364  141.7003  161.7834 C.ar    1  UNL1        0.0042
     27 C         145.2747  142.3073  162.5488 C.ar    1  UNL1        0.0206
     28 C         145.7824  141.6401  163.7926 C.ar    1  UNL1        0.1020
     29 N         145.1518  140.3660  164.2711 N.ar    1  UNL1       -0.2103
     30 C         144.0135  139.7589  163.5057 C.ar    1  UNL1        0.2229
     31 O         143.3830  138.4848  163.9841 O.3     1  UNL1       -0.4563
     32 C         143.0688  138.3039  165.4396 C.3     1  UNL1        0.2542
     33 C         143.3071  138.8169  160.8939 C.3     1  UNL1        0.0493
     34 C         142.8153  137.8636  159.8455 C.3     1  UNL1        0.0750
     35 N         142.9775  138.1980  158.3922 N.3     1  UNL1       -0.2702
     36 C         142.7577  137.1415  157.3504 C.3     1  UNL1        0.0897
     37 C         143.3596  139.5890  157.9809 C.3     1  UNL1        0.0897
@<TRIPOS>BOND
     1    13    14    1
     2    14     2    1
     3     2     3   ar
     4     3     4   ar
     5     4     5   ar
     6     5     6   ar
     7     6     7   ar
     8     7     8    1
     9     7     9   ar
    10     9    10   ar
    11    10    11   ar
    12    11    12   ar
    13    12     1    1
    14     1    15    1
    15    15    16   ar
    16    16    17   ar
    17    17    18   ar
    18    18    19   ar
    19    19    20    1
    20    19    21   ar
    21     1    22    1
    22    22    23    1
    23    22    33    1
    24    33    34    1
    25    34    35    1
    26    35    36    1
    27    35    37    1
    28    22    25    1
    29    25    26   ar
    30    26    27   ar
    31    27    28   ar
    32    28    29   ar
    33    29    30   ar
    34    30    31    1
    35    31    32    1
    36    12     2   ar
    37    21    15   ar
    38    30    25   ar
    39    10     4   ar
    40    23    24    1
@<TRIPOS>MOLECULE
*****
 37 40 0 0 0
SMALL
GASTEIGER

@<TRIPOS>ATOM
      1 C         141.5056  141.7572  163.3040 C.3     1  UNL1        0.0778
      2 C         143.5452  142.8141  162.0903 C.ar    1  UNL1        0.2211
      3 N         144.4218  142.9236  160.8781 N.ar    1  UNL1       -0.2119
      4 C         144.1355  142.0857  159.6673 C.ar    1  UNL1        0.0844
      5 C         145.0122  142.1952  158.4551 C.ar    1  UNL1        0.0197
      6 C         144.7258  141.3573  157.2443 C.ar    1  UNL1        0.0082
      7 C         143.5629  140.4100  157.2458 C.ar    1  UNL1        0.0347
      8 BR        143.2766  139.5721  156.0349 Br      1  UNL1       -0.0490
      9 C         142.6862  140.3005  158.4580 C.ar    1  UNL1        0.0082
     10 C         142.9726  141.1383  159.6687 C.ar    1  UNL1        0.0181
     11 C         142.0959  141.0289  160.8810 C.ar    1  UNL1        0.0023
     12 C         142.3822  141.8667  162.0917 C.ar    1  UNL1        0.0373
     13 C         143.2819  145.0444  163.3967 C.3     1  UNL1        0.2542
     14 O         143.8315  143.6520  163.3011 O.3     1  UNL1       -0.4563
     15 C         140.2500  142.5725  163.3977 C.ar    1  UNL1       -0.0160
     16 C         139.2575  142.5530  162.2732 C.ar    1  UNL1       -0.0039
     17 C         138.0018  143.3683  162.3668 C.ar    1  UNL1       -0.0006
     18 C         137.7387  144.2030  163.5849 C.ar    1  UNL1       -0.0043
     19 C         138.7313  144.2226  164.7095 C.ar    1  UNL1       -0.0222
     20 C         138.4682  145.0574  165.9276 C.3     1  UNL1        0.0310
     21 C         139.9869  143.4073  164.6159 C.ar    1  UNL1       -0.0081
     22 C         141.8846  140.8325  164.4226 C.3     1  UNL1        0.1202
     23 O         142.7242  141.9152  165.0331 O.3     1  UNL1       -0.3818
     24 H         143.0062  142.5343  164.3417 H       1  UNL1        0.2107
     25 C         141.0449  139.7499  163.8121 C.ar    1  UNL1        0.0556
     26 C         139.5523  139.7868  163.9567 C.ar    1  UNL1        0.0042
     27 C         138.7127  138.7041  163.3462 C.ar    1  UNL1        0.0206
     28 C         139.3655  137.5845  162.5910 C.ar    1  UNL1        0.1020
     29 N         140.8580  137.5476  162.4464 N.ar    1  UNL1       -0.2103
     30 C         141.6978  138.6303  163.0569 C.ar    1  UNL1        0.2229
     31 O         143.1903  138.5934  162.9123 O.3     1  UNL1       -0.4563
     32 C         143.8108  137.9720  161.6962 C.3     1  UNL1        0.2542
     33 C         142.2635  139.9078  165.5412 C.3     1  UNL1        0.0493
     34 C         142.2481  140.3992  166.9583 C.3     1  UNL1        0.0750
     35 N         140.9883  140.9675  167.5414 N.3     1  UNL1       -0.2702
     36 C         139.7598  140.1136  167.6488 C.3     1  UNL1        0.0897
     37 C         140.9571  142.3898  168.0170 C.3     1  UNL1        0.0897
@<TRIPOS>BOND
     1    13    14    1
     2    14     2    1
     3     2     3   ar
     4     3     4   ar
     5     4     5   ar
     6     5     6   ar
     7     6     7   ar
     8     7     8    1
     9     7     9   ar
    10     9    10   ar
    11    10    11   ar
    12    11    12   ar
    13    12     1    1
    14     1    15    1
    15    15    16   ar
    16    16    17   ar
    17    17    18   ar
    18    18    19   ar
    19    19    20    1
    20    19    21   ar
    21     1    22    1
    22    22    23    1
    23    22    33    1
    24    33    34    1
    25    34    35    1
    26    35    36    1
    27    35    37    1
    28    22    25    1
    29    25    26   ar
    30    26    27   ar
    31    27    28   ar
    32    28    29   ar
    33    29    30   ar
    34    30    31    1
    35    31    32    1
    36    12     2   ar
    37    21    15   ar
    38    30    25   ar
    39    10     4   ar
    40    23    24    1
@<TRIPOS>MOLECULE
*****
 37 40 0 0 0
SMALL
GASTEIGER

@<TRIPOS>ATOM
      1 C         141.2297  140.9371  163.0649 C.3     1  UNL1        0.0778
      2 C         143.2575  141.3764  164.6287 C.ar    1  UNL1        0.2211
      3 N         143.8026  141.7661  165.9706 N.ar    1  UNL1       -0.2119
      4 C         142.8649  142.1063  167.0910 C.ar    1  UNL1        0.0844
      5 C         143.4100  142.4960  168.4330 C.ar    1  UNL1        0.0197
      6 C         142.4724  142.8361  169.5533 C.ar    1  UNL1        0.0082
      7 C         140.9897  142.7866  169.3316 C.ar    1  UNL1        0.0347
      8 BR        140.0521  143.1268  170.4520 Br      1  UNL1       -0.0490
      9 C         140.4446  142.3969  167.9896 C.ar    1  UNL1        0.0082
     10 C         141.3822  142.0567  166.8693 C.ar    1  UNL1        0.0181
     11 C         140.8372  141.6670  165.5273 C.ar    1  UNL1        0.0023
     12 C         141.7748  141.3269  164.4070 C.ar    1  UNL1        0.0373
     13 C         145.6145  141.5201  163.5451 C.3     1  UNL1        0.2542
     14 O         144.1951  141.0362  163.5083 O.3     1  UNL1       -0.4563
     15 C         140.2802  139.7818  162.9477 C.ar    1  UNL1       -0.0160
     16 C         139.7290  139.3971  161.6069 C.ar    1  UNL1       -0.0039
     17 C         138.7795  138.2418  161.4897 C.ar    1  UNL1       -0.0006
     18 C         138.3813  137.4712  162.7135 C.ar    1  UNL1       -0.0043
     19 C         138.9326  137.8559  164.0544 C.ar    1  UNL1       -0.0222
     20 C         138.5344  137.0853  165.2782 C.3     1  UNL1        0.0310
     21 C         139.8821  139.0112  164.1716 C.ar    1  UNL1       -0.0081
     22 C         141.6341  141.7027  161.8401 C.3     1  UNL1        0.1202
     23 O         142.4791  140.5457  161.3958 O.3     1  UNL1       -0.3818
     24 H         142.7450  140.0239  162.1691 H       1  UNL1        0.2107
     25 C         140.7892  142.8597  162.2843 C.ar    1  UNL1        0.0556
     26 C         139.2934  142.7594  162.2331 C.ar    1  UNL1        0.0042
     27 C         138.4485  143.9164  162.6773 C.ar    1  UNL1        0.0206
     28 C         139.0993  145.1738  163.1727 C.ar    1  UNL1        0.1020
     29 N         140.5950  145.2742  163.2239 N.ar    1  UNL1       -0.2103
     30 C         141.4400  144.1171  162.7797 C.ar    1  UNL1        0.2229
     31 O         142.9358  144.2175  162.8309 O.3     1  UNL1       -0.4563
     32 C         143.5960  145.0450  163.8936 C.3     1  UNL1        0.2542
     33 C         142.0386  142.4683  160.6152 C.3     1  UNL1        0.0493
     34 C         142.5969  141.7423  159.4273 C.3     1  UNL1        0.0750
     35 N         144.0442  141.8981  159.0652 N.3     1  UNL1       -0.2702
     36 C         144.5596  141.3331  157.7748 C.3     1  UNL1        0.0897
     37 C         144.9761  142.6190  159.9936 C.3     1  UNL1        0.0897
@<TRIPOS>BOND
     1    13    14    1
     2    14     2    1
     3     2     3   ar
     4     3     4   ar
     5     4     5   ar
     6     5     6   ar
     7     6     7   ar
     8     7     8    1
     9     7     9   ar
    10     9    10   ar
    11    10    11   ar
    12    11    12   ar
    13    12     1    1
    14     1    15    1
    15    15    16   ar
    16    16    17   ar
    17    17    18   ar
    18    18    19   ar
    19    19    20    1
    20    19    21   ar
    21     1    22    1
    22    22    23    1
    23    22    33    1
    24    33    34    1
    25    34    35    1
    26    35    36    1
    27    35    37    1
    28    22    25    1
    29    25    26   ar
    30    26    27   ar
    31    27    28   ar
    32    28    29   ar
    33    29    30   ar
    34    30    31    1
    35    31    32    1
    36    12     2   ar
    37    21    15   ar
    38    30    25   ar
    39    10     4   ar
    40    23    24    1
@<TRIPOS>MOLECULE
*****
 37 40 0 0 0
SMALL
GASTEIGER

@<TRIPOS>ATOM
      1 C         140.5364  140.9212  163.9877 C.3     1  UNL1        0.0778
      2 C         141.4226  139.3381  162.1280 C.ar    1  UNL1        0.2211
      3 N         141.3507  138.8154  160.7239 N.ar    1  UNL1       -0.2119
      4 C         140.3206  139.3530  159.7752 C.ar    1  UNL1        0.0844
      5 C         140.2487  138.8303  158.3711 C.ar    1  UNL1        0.0197
      6 C         139.2186  139.3680  157.4226 C.ar    1  UNL1        0.0082
      7 C         138.2604  140.4283  157.8781 C.ar    1  UNL1        0.0347
      8 BR        137.2302  140.9659  156.9295 Br      1  UNL1       -0.0490
      9 C         138.3323  140.9510  159.2822 C.ar    1  UNL1        0.0082
     10 C         139.3624  140.4134  160.2308 C.ar    1  UNL1        0.0181
     11 C         139.4343  140.9361  161.6350 C.ar    1  UNL1        0.0023
     12 C         140.4644  140.3985  162.5835 C.ar    1  UNL1        0.0373
     13 C         143.8917  138.7284  162.6591 C.3     1  UNL1        0.2542
     14 O         142.4528  138.8005  163.0766 O.3     1  UNL1       -0.4563
     15 C         139.7810  140.2309  165.0845 C.ar    1  UNL1       -0.0160
     16 C         138.7725  139.1723  164.7495 C.ar    1  UNL1       -0.0039
     17 C         138.0172  138.4821  165.8463 C.ar    1  UNL1       -0.0006
     18 C         138.2704  138.8504  167.2782 C.ar    1  UNL1       -0.0043
     19 C         139.2789  139.9091  167.6133 C.ar    1  UNL1       -0.0222
     20 C         139.5320  140.2774  169.0451 C.3     1  UNL1        0.0310
     21 C         140.0342  140.5993  166.5164 C.ar    1  UNL1       -0.0081
     22 C         141.3636  142.1341  164.2950 C.3     1  UNL1        0.1202
     23 O         142.5034  141.2516  164.7098 O.3     1  UNL1       -0.3818
     24 H         142.1585  140.3922  164.9985 H       1  UNL1        0.2107
     25 C         140.2239  143.0165  163.8802 C.ar    1  UNL1        0.0556
     26 C         139.0341  143.1774  164.7795 C.ar    1  UNL1        0.0042
     27 C         137.8943  144.0599  164.3647 C.ar    1  UNL1        0.0206
     28 C         137.9442  144.7815  163.0507 C.ar    1  UNL1        0.1020
     29 N         139.1339  144.6207  162.1514 N.ar    1  UNL1       -0.2103
     30 C         140.2738  143.7382  162.5662 C.ar    1  UNL1        0.2229
     31 O         141.4635  143.5774  161.6669 O.3     1  UNL1       -0.4563
     32 C         141.4604  144.1972  160.3010 C.3     1  UNL1        0.2542
     33 C         142.1909  143.3470  164.6023 C.3     1  UNL1        0.0493
     34 C         143.6635  143.2071  164.8511 C.3     1  UNL1        0.0750
     35 N         144.6020  142.9971  163.6999 N.3     1  UNL1       -0.2702
     36 C         144.5161  143.8815  162.4914 C.3     1  UNL1        0.0897
     37 C         145.6262  141.9028  163.7572 C.3     1  UNL1        0.0897
@<TRIPOS>BOND
     1    13    14    1
     2    14     2    1
     3     2     3   ar
     4     3     4   ar
     5     4     5   ar
     6     5     6   ar
     7     6     7   ar
     8     7     8    1
     9     7     9   ar
    10     9    10   ar
    11    10    11   ar
    12    11    12   ar
    13    12     1    1
    14     1    15    1
    15    15    16   ar
    16    16    17   ar
    17    17    18   ar
    18    18    19   ar
    19    19    20    1
    20    19    21   ar
    21     1    22    1
    22    22    23    1
    23    22    33    1
    24    33    34    1
    25    34    35    1
    26    35    36    1
    27    35    37    1
    28    22    25    1
    29    25    26   ar
    30    26    27   ar
    31    27    28   ar
    32    28    29   ar
    33    29    30   ar
    34    30    31    1
    35    31    32    1
    36    12     2   ar
    37    21    15   ar
    38    30    25   ar
    39    10     4   ar
    40    23    24    1
@<TRIPOS>MOLECULE
*****
 37 40 0 0 0
SMALL
GASTEIGER

@<TRIPOS>ATOM
      1 C         141.0306  140.8894  164.5037 C.3     1  UNL1        0.0778
      2 C         138.9903  139.8342  163.2897 C.ar    1  UNL1        0.2211
      3 N         138.1712  139.6495  162.0468 N.ar    1  UNL1       -0.2119
      4 C         138.5733  140.3354  160.7748 C.ar    1  UNL1        0.0844
      5 C         137.7542  140.1507  159.5318 C.ar    1  UNL1        0.0197
      6 C         138.1562  140.8365  158.2599 C.ar    1  UNL1        0.0082
      7 C         139.3774  141.7071  158.2309 C.ar    1  UNL1        0.0347
      8 BR        139.7795  142.3929  156.9589 Br      1  UNL1       -0.0490
      9 C         140.1965  141.8918  159.4738 C.ar    1  UNL1        0.0082
     10 C         139.7944  141.2059  160.7458 C.ar    1  UNL1        0.0181
     11 C         140.6135  141.3906  161.9888 C.ar    1  UNL1        0.0023
     12 C         140.2115  140.7048  163.2607 C.ar    1  UNL1        0.0373
     13 C         138.9569  137.7121  164.7883 C.3     1  UNL1        0.2542
     14 O         138.5882  139.1483  164.5618 O.3     1  UNL1       -0.4563
     15 C         142.3637  140.2138  164.6307 C.ar    1  UNL1       -0.0160
     16 C         143.4578  140.5236  163.6524 C.ar    1  UNL1       -0.0039
     17 C         144.7909  139.8480  163.7793 C.ar    1  UNL1       -0.0006
     18 C         145.0301  138.8625  164.8845 C.ar    1  UNL1       -0.0043
     19 C         143.9361  138.5526  165.8629 C.ar    1  UNL1       -0.0222
     20 C         144.1752  137.5670  166.9681 C.3     1  UNL1        0.0310
     21 C         142.6029  139.2282  165.7359 C.ar    1  UNL1       -0.0081
     22 C         140.5165  141.7497  165.6198 C.3     1  UNL1        0.1202
     23 O         140.0727  140.5234  166.3607 O.3     1  UNL1       -0.3818
     24 H         139.9103  139.8052  165.7293 H       1  UNL1        0.2107
     25 C         140.9602  142.9761  164.8788 C.ar    1  UNL1        0.0556
     26 C         142.4167  143.3298  164.8181 C.ar    1  UNL1        0.0042
     27 C         142.8605  144.5561  164.0771 C.ar    1  UNL1        0.0206
     28 C         141.8478  145.4289  163.3969 C.ar    1  UNL1        0.1020
     29 N         140.3914  145.0753  163.4576 N.ar    1  UNL1       -0.2103
     30 C         139.9476  143.8489  164.1985 C.ar    1  UNL1        0.2229
     31 O         138.4911  143.4953  164.2592 O.3     1  UNL1       -0.4563
     32 C         137.6798  143.4390  162.9988 C.3     1  UNL1        0.2542
     33 C         140.0024  142.6100  166.7358 C.3     1  UNL1        0.0493
     34 C         140.7968  142.7521  168.0002 C.3     1  UNL1        0.0750
     35 N         140.8931  141.6022  168.9586 N.3     1  UNL1       -0.2702
     36 C         142.1822  140.8478  169.0976 C.3     1  UNL1        0.0897
     37 C         139.7006  141.2067  169.7779 C.3     1  UNL1        0.0897
@<TRIPOS>BOND
     1    13    14    1
     2    14     2    1
     3     2     3   ar
     4     3     4   ar
     5     4     5   ar
     6     5     6   ar
     7     6     7   ar
     8     7     8    1
     9     7     9   ar
    10     9    10   ar
    11    10    11   ar
    12    11    12   ar
    13    12     1    1
    14     1    15    1
    15    15    16   ar
    16    16    17   ar
    17    17    18   ar
    18    18    19   ar
    19    19    20    1
    20    19    21   ar
    21     1    22    1
    22    22    23    1
    23    22    33    1
    24    33    34    1
    25    34    35    1
    26    35    36    1
    27    35    37    1
    28    22    25    1
    29    25    26   ar
    30    26    27   ar
    31    27    28   ar
    32    28    29   ar
    33    29    30   ar
    34    30    31    1
    35    31    32    1
    36    12     2   ar
    37    21    15   ar
    38    30    25   ar
    39    10     4   ar
    40    23    24    1
@<TRIPOS>MOLECULE
*****
 37 40 0 0 0
SMALL
GASTEIGER

@<TRIPOS>ATOM
      1 C         141.5835  141.5953  162.3334 C.3     1  UNL1        0.0778
      2 C         143.2430  140.8479  164.1875 C.ar    1  UNL1        0.2211
      3 N         143.5082  140.4430  165.6072 N.ar    1  UNL1       -0.2119
      4 C         142.3791  140.3806  166.5928 C.ar    1  UNL1        0.0844
      5 C         142.6443  139.9757  168.0125 C.ar    1  UNL1        0.0197
      6 C         141.5152  139.9133  168.9980 C.ar    1  UNL1        0.0082
      7 C         140.1209  140.2557  168.5637 C.ar    1  UNL1        0.0347
      8 BR        138.9918  140.1933  169.5493 Br      1  UNL1       -0.0490
      9 C         139.8557  140.6606  167.1440 C.ar    1  UNL1        0.0082
     10 C         140.9848  140.7230  166.1585 C.ar    1  UNL1        0.0181
     11 C         140.7196  141.1279  164.7387 C.ar    1  UNL1        0.0023
     12 C         141.8487  141.1904  163.7532 C.ar    1  UNL1        0.0373
     13 C         145.6562  141.5904  163.5746 C.3     1  UNL1        0.2542
     14 O         144.3722  140.9103  163.2020 O.3     1  UNL1       -0.4563
     15 C         141.1252  142.9897  162.0243 C.ar    1  UNL1       -0.0160
     16 C         140.5616  143.8527  163.1140 C.ar    1  UNL1       -0.0039
     17 C         140.1032  145.2471  162.8049 C.ar    1  UNL1       -0.0006
     18 C         140.2085  145.7785  161.4062 C.ar    1  UNL1       -0.0043
     19 C         140.7721  144.9154  160.3164 C.ar    1  UNL1       -0.0222
     20 C         140.8774  145.4468  158.9177 C.3     1  UNL1        0.0310
     21 C         141.2305  143.5210  160.6255 C.ar    1  UNL1       -0.0081
     22 C         141.7767  140.6058  161.2228 C.3     1  UNL1        0.1202
     23 O         143.1168  141.2076  160.9197 O.3     1  UNL1       -0.3818
     24 H         143.1304  142.1316  161.2145 H       1  UNL1        0.2107
     25 C         140.4366  140.0040  161.5258 C.ar    1  UNL1        0.0556
     26 C         139.1842  140.6988  161.0799 C.ar    1  UNL1        0.0042
     27 C         137.8441  140.0970  161.3829 C.ar    1  UNL1        0.0206
     28 C         137.7563  138.8004  162.1319 C.ar    1  UNL1        0.1020
     29 N         139.0086  138.1056  162.5779 N.ar    1  UNL1       -0.2103
     30 C         140.3488  138.7074  162.2749 C.ar    1  UNL1        0.2229
     31 O         141.6010  138.0125  162.7208 O.3     1  UNL1       -0.4563
     32 C         141.6951  137.4546  164.1100 C.3     1  UNL1        0.2542
     33 C         141.9699  139.6163  160.1121 C.3     1  UNL1        0.0493
     34 C         143.3431  139.3615  159.5651 C.3     1  UNL1        0.0750
     35 N         143.6252  139.5909  158.1098 N.3     1  UNL1       -0.2702
     36 C         143.0331  138.6772  157.0780 C.3     1  UNL1        0.0897
     37 C         144.4994  140.7339  157.6864 C.3     1  UNL1        0.0897
@<TRIPOS>BOND
     1    13    14    1
     2    14     2    1
     3     2     3   ar
     4     3     4   ar
     5     4     5   ar
     6     5     6   ar
     7     6     7   ar
     8     7     8    1
     9     7     9   ar
    10     9    10   ar
    11    10    11   ar
    12    11    12   ar
    13    12     1    1
    14     1    15    1
    15    15    16   ar
    16    16    17   ar
    17    17    18   ar
    18    18    19   ar
    19    19    20    1
    20    19    21   ar
    21     1    22    1
    22    22    23    1
    23    22    33    1
    24    33    34    1
    25    34    35    1
    26    35    36    1
    27    35    37    1
    28    22    25    1
    29    25    26   ar
    30    26    27   ar
    31    27    28   ar
    32    28    29   ar
    33    29    30   ar
    34    30    31    1
    35    31    32    1
    36    12     2   ar
    37    21    15   ar
    38    30    25   ar
    39    10     4   ar
    40    23    24    1
