@<TRIPOS>MOLECULE
*****
 25 27 0 0 0
SMALL
GASTEIGER

@<TRIPOS>ATOM
      1 C         138.3519  140.0517  165.3109 C.ar    1  UNL1        0.1969
      2 N         137.8053  138.9291  166.1422 N.ar    1  UNL1       -0.0588
      3 O         138.4269  139.0159  167.5047 O.2     1  UNL1       -0.3326
      4 C         139.3576  140.1922  167.5155 C.ar    1  UNL1        0.2620
      5 N         139.3113  140.8324  166.1597 N.ar    1  UNL1       -0.1896
      6 C         140.1887  140.6482  168.6778 C.ar    1  UNL1        0.0843
      7 C         141.5645  141.1990  168.4459 C.ar    1  UNL1        0.0184
      8 C         142.3956  141.6551  169.6084 C.ar    1  UNL1        0.0580
      9 CL        143.7713  142.2059  169.3765 Cl      1  UNL1       -0.0822
     10 C         141.8509  141.5603  171.0028 C.ar    1  UNL1        0.0137
     11 C         140.4751  141.0094  171.2348 C.ar    1  UNL1        0.0307
     12 C         139.6440  140.5534  170.0722 C.ar    1  UNL1        0.1447
     13 F         138.2682  140.0026  170.3042 F       1  UNL1       -0.2040
     14 C         138.0009  140.3427  163.8820 C.3     1  UNL1        0.1425
     15 C         140.0973  145.2980  161.2268 C.2     1  UNL1        0.4049
     16 O         139.3277  146.5820  161.3208 O.2     1  UNL1       -0.2262
     17 N         139.5732  144.0592  161.8906 N.am    1  UNL1       -0.2432
     18 C         140.3427  142.7751  161.7965 C.3     1  UNL1        0.1141
     19 C         139.8186  141.5363  162.4603 C.3     1  UNL1        0.0943
     20 N         138.5250  141.5815  163.2182 N.3     1  UNL1       -0.2632
     21 C         137.7554  142.8656  163.3122 C.3     1  UNL1        0.0943
     22 C         138.2795  144.1044  162.6484 C.3     1  UNL1        0.1141
     23 O         141.3909  145.2527  160.4689 O.3     1  UNL1       -0.4345
     24 C         140.2672  145.5800  158.1494 C.3     1  UNL1        0.0513
     25 C         141.3839  145.0289  158.9857 C.3     1  UNL1        0.2102
@<TRIPOS>BOND
     1    24    25    1
     2    25    23    1
     3    23    15    1
     4    15    16    2
     5    15    17   am
     6    17    18    1
     7    18    19    1
     8    19    20    1
     9    20    14    1
    10    14     1    1
    11     1     2   ar
    12     2     3   ar
    13     3     4   ar
    14     4     6    1
    15     6     7   ar
    16     7     8   ar
    17     8     9    1
    18     8    10   ar
    19    10    11   ar
    20    11    12   ar
    21    12    13    1
    22     4     5   ar
    23    20    21    1
    24    21    22    1
    25    22    17    1
    26     5     1   ar
    27    12     6   ar
@<TRIPOS>MOLECULE
*****
 25 27 0 0 0
SMALL
GASTEIGER

@<TRIPOS>ATOM
      1 C         138.6963  138.6896  165.5651 C.ar    1  UNL1        0.1969
      2 N         137.7132  138.2996  166.6288 N.ar    1  UNL1       -0.0588
      3 O         138.1192  138.9748  167.9054 O.2     1  UNL1       -0.3326
      4 C         139.3533  139.7821  167.6305 C.ar    1  UNL1        0.2620
      5 N         139.7099  139.6058  166.1842 N.ar    1  UNL1       -0.1896
      6 C         140.0996  140.6187  168.6269 C.ar    1  UNL1        0.0843
      7 C         141.4932  141.0827  168.3225 C.ar    1  UNL1        0.0184
      8 C         142.2395  141.9194  169.3191 C.ar    1  UNL1        0.0580
      9 CL        143.6331  142.3834  169.0147 Cl      1  UNL1       -0.0822
     10 C         141.5924  142.2919  170.6200 C.ar    1  UNL1        0.0137
     11 C         140.1988  141.8279  170.9244 C.ar    1  UNL1        0.0307
     12 C         139.4525  140.9912  169.9278 C.ar    1  UNL1        0.1447
     13 F         138.0589  140.5272  170.2323 F       1  UNL1       -0.2040
     14 C         138.6703  138.2420  164.1337 C.3     1  UNL1        0.1425
     15 C         143.1824  139.6927  160.4545 C.2     1  UNL1        0.4049
     16 O         144.2791  138.7049  160.1868 O.2     1  UNL1       -0.2262
     17 N         142.0544  139.3300  161.3743 N.am    1  UNL1       -0.2432
     18 C         140.9578  140.3177  161.6420 C.3     1  UNL1        0.1141
     19 C         139.8297  139.9551  162.5618 C.3     1  UNL1        0.0943
     20 N         139.7984  138.6047  163.2139 N.3     1  UNL1       -0.2632
     21 C         140.8950  137.6169  162.9463 C.3     1  UNL1        0.0943
     22 C         142.0230  137.9796  162.0265 C.3     1  UNL1        0.1141
     23 O         143.2138  141.0431  159.8023 O.3     1  UNL1       -0.4345
     24 C         144.7460  142.0316  161.6531 C.3     1  UNL1        0.0513
     25 C         144.2094  142.0706  160.2528 C.3     1  UNL1        0.2102
@<TRIPOS>BOND
     1    24    25    1
     2    25    23    1
     3    23    15    1
     4    15    16    2
     5    15    17   am
     6    17    18    1
     7    18    19    1
     8    19    20    1
     9    20    14    1
    10    14     1    1
    11     1     2   ar
    12     2     3   ar
    13     3     4   ar
    14     4     6    1
    15     6     7   ar
    16     7     8   ar
    17     8     9    1
    18     8    10   ar
    19    10    11   ar
    20    11    12   ar
    21    12    13    1
    22     4     5   ar
    23    20    21    1
    24    21    22    1
    25    22    17    1
    26     5     1   ar
    27    12     6   ar
@<TRIPOS>MOLECULE
*****
 25 27 0 0 0
SMALL
GASTEIGER

@<TRIPOS>ATOM
      1 C         138.9000  138.6546  165.9032 C.ar    1  UNL1        0.1969
      2 N         137.9888  138.5310  167.0882 N.ar    1  UNL1       -0.0588
      3 O         138.5616  139.3572  168.2016 O.2     1  UNL1       -0.3326
      4 C         139.8268  139.9914  167.7045 C.ar    1  UNL1        0.2620
      5 N         140.0360  139.5572  166.2841 N.ar    1  UNL1       -0.1896
      6 C         140.7251  140.9002  168.4900 C.ar    1  UNL1        0.0843
      7 C         140.2279  142.2429  168.9372 C.ar    1  UNL1        0.0184
      8 C         141.1263  143.1518  169.7227 C.ar    1  UNL1        0.0580
      9 CL        140.6292  144.4945  170.1699 Cl      1  UNL1       -0.0822
     10 C         142.5217  142.7179  170.0610 C.ar    1  UNL1        0.0137
     11 C         143.0189  141.3751  169.6139 C.ar    1  UNL1        0.0307
     12 C         142.1205  140.4664  168.8284 C.ar    1  UNL1        0.1447
     13 F         142.6177  139.1236  168.3812 F       1  UNL1       -0.2040
     14 C         138.7089  137.9920  164.5711 C.3     1  UNL1        0.1425
     15 C         138.4053  141.3140  159.5839 C.2     1  UNL1        0.4049
     16 O         138.4035  140.6496  158.2392 O.2     1  UNL1       -0.2262
     17 N         138.4812  140.4835  160.8307 N.am    1  UNL1       -0.2432
     18 C         138.4829  141.1479  162.1755 C.3     1  UNL1        0.1141
     19 C         138.5588  140.3174  163.4223 C.3     1  UNL1        0.0943
     20 N         138.6330  138.8225  163.3243 N.3     1  UNL1       -0.2632
     21 C         138.6313  138.1581  161.9795 C.3     1  UNL1        0.0943
     22 C         138.5553  138.9886  160.7327 C.3     1  UNL1        0.1141
     23 O         138.3311  142.8089  159.6819 O.3     1  UNL1       -0.4345
     24 C         140.8249  143.1137  159.0200 C.3     1  UNL1        0.0513
     25 C         139.5911  143.6225  159.7048 C.3     1  UNL1        0.2102
@<TRIPOS>BOND
     1    24    25    1
     2    25    23    1
     3    23    15    1
     4    15    16    2
     5    15    17   am
     6    17    18    1
     7    18    19    1
     8    19    20    1
     9    20    14    1
    10    14     1    1
    11     1     2   ar
    12     2     3   ar
    13     3     4   ar
    14     4     6    1
    15     6     7   ar
    16     7     8   ar
    17     8     9    1
    18     8    10   ar
    19    10    11   ar
    20    11    12   ar
    21    12    13    1
    22     4     5   ar
    23    20    21    1
    24    21    22    1
    25    22    17    1
    26     5     1   ar
    27    12     6   ar
@<TRIPOS>MOLECULE
*****
 25 27 0 0 0
SMALL
GASTEIGER

@<TRIPOS>ATOM
      1 C         142.8825  137.6722  157.2241 C.ar    1  UNL1        0.1969
      2 N         143.9575  137.9086  156.2050 N.ar    1  UNL1       -0.0588
      3 O         144.3997  136.5749  155.6798 O.2     1  UNL1       -0.3326
      4 C         143.5980  135.5142  156.3744 C.ar    1  UNL1        0.2620
      5 N         142.6604  136.1924  157.3288 N.ar    1  UNL1       -0.1896
      6 C         143.7137  134.0352  156.1534 C.ar    1  UNL1        0.0843
      7 C         144.2634  133.1556  157.2369 C.ar    1  UNL1        0.0184
      8 C         144.3791  131.6765  157.0159 C.ar    1  UNL1        0.0580
      9 CL        144.9289  130.7970  158.0995 Cl      1  UNL1       -0.0822
     10 C         143.9450  131.0769  155.7113 C.ar    1  UNL1        0.0137
     11 C         143.3952  131.9565  154.6276 C.ar    1  UNL1        0.0307
     12 C         143.2796  133.4356  154.8488 C.ar    1  UNL1        0.1447
     13 F         142.7298  134.3152  153.7651 F       1  UNL1       -0.2040
     14 C         142.1571  138.7299  158.0020 C.3     1  UNL1        0.1425
     15 C         140.3547  137.6194  163.6161 C.2     1  UNL1        0.4049
     16 O         141.3515  137.1956  164.6538 O.2     1  UNL1       -0.2262
     17 N         140.8053  137.8970  162.2126 N.am    1  UNL1       -0.2432
     18 C         139.8086  138.3209  161.1749 C.3     1  UNL1        0.1141
     19 C         140.2592  138.5985  159.7714 C.3     1  UNL1        0.0943
     20 N         141.7065  138.4523  159.4055 N.3     1  UNL1       -0.2632
     21 C         142.7032  138.0284  160.4432 C.3     1  UNL1        0.0943
     22 C         142.2526  137.7508  161.8468 C.3     1  UNL1        0.1141
     23 O         138.9074  137.7657  163.9820 O.3     1  UNL1       -0.4345
     24 C         138.1576  138.5915  166.3284 C.3     1  UNL1        0.0513
     25 C         138.4720  138.8775  164.8898 C.3     1  UNL1        0.2102
@<TRIPOS>BOND
     1    24    25    1
     2    25    23    1
     3    23    15    1
     4    15    16    2
     5    15    17   am
     6    17    18    1
     7    18    19    1
     8    19    20    1
     9    20    14    1
    10    14     1    1
    11     1     2   ar
    12     2     3   ar
    13     3     4   ar
    14     4     6    1
    15     6     7   ar
    16     7     8   ar
    17     8     9    1
    18     8    10   ar
    19    10    11   ar
    20    11    12   ar
    21    12    13    1
    22     4     5   ar
    23    20    21    1
    24    21    22    1
    25    22    17    1
    26     5     1   ar
    27    12     6   ar
@<TRIPOS>MOLECULE
*****
 25 27 0 0 0
SMALL
GASTEIGER

@<TRIPOS>ATOM
      1 C         139.0036  138.4543  165.5838 C.ar    1  UNL1        0.1969
      2 N         138.0101  138.3948  166.7061 N.ar    1  UNL1       -0.0588
      3 O         138.5265  139.2461  167.8280 O.2     1  UNL1       -0.3326
      4 C         139.8393  139.8317  167.3991 C.ar    1  UNL1        0.2620
      5 N         140.1341  139.3423  166.0122 N.ar    1  UNL1       -0.1896
      6 C         140.7051  140.7460  168.2141 C.ar    1  UNL1        0.0843
      7 C         140.1644  142.0601  168.6946 C.ar    1  UNL1        0.0184
      8 C         141.0303  142.9745  169.5096 C.ar    1  UNL1        0.0580
      9 CL        140.4896  144.2885  169.9901 Cl      1  UNL1       -0.0822
     10 C         142.4368  142.5748  169.8441 C.ar    1  UNL1        0.0137
     11 C         142.9775  141.2607  169.3636 C.ar    1  UNL1        0.0307
     12 C         142.1116  140.3463  168.5486 C.ar    1  UNL1        0.1447
     13 F         142.6523  139.0322  168.0681 F       1  UNL1       -0.2040
     14 C         138.8871  137.7495  164.2649 C.3     1  UNL1        0.1425
     15 C         142.8272  138.9023  159.8891 C.2     1  UNL1        0.4049
     16 O         144.2906  138.6638  160.1157 O.2     1  UNL1       -0.2262
     17 N         141.8422  138.6141  160.9831 N.am    1  UNL1       -0.2432
     18 C         140.3787  138.8526  160.7566 C.3     1  UNL1        0.1141
     19 C         139.3937  138.5644  161.8505 C.3     1  UNL1        0.0943
     20 N         139.8721  138.0377  163.1709 N.3     1  UNL1       -0.2632
     21 C         141.3356  137.7992  163.3974 C.3     1  UNL1        0.0943
     22 C         142.3206  138.0874  162.3035 C.3     1  UNL1        0.1141
     23 O         142.3487  139.4290  158.5687 O.3     1  UNL1       -0.4345
     24 C         142.6678  137.0767  157.5129 C.3     1  UNL1        0.0513
     25 C         142.2367  138.5081  157.3900 C.3     1  UNL1        0.2102
@<TRIPOS>BOND
     1    24    25    1
     2    25    23    1
     3    23    15    1
     4    15    16    2
     5    15    17   am
     6    17    18    1
     7    18    19    1
     8    19    20    1
     9    20    14    1
    10    14     1    1
    11     1     2   ar
    12     2     3   ar
    13     3     4   ar
    14     4     6    1
    15     6     7   ar
    16     7     8   ar
    17     8     9    1
    18     8    10   ar
    19    10    11   ar
    20    11    12   ar
    21    12    13    1
    22     4     5   ar
    23    20    21    1
    24    21    22    1
    25    22    17    1
    26     5     1   ar
    27    12     6   ar
@<TRIPOS>MOLECULE
*****
 25 27 0 0 0
SMALL
GASTEIGER

@<TRIPOS>ATOM
      1 C         138.9030  138.6703  165.7341 C.ar    1  UNL1        0.1969
      2 N         138.0284  138.4744  166.9369 N.ar    1  UNL1       -0.0588
      3 O         138.6014  139.2825  168.0633 O.2     1  UNL1       -0.3326
      4 C         139.8301  139.9779  167.5566 C.ar    1  UNL1        0.2620
      5 N         140.0166  139.5995  166.1171 N.ar    1  UNL1       -0.1896
      6 C         140.7168  140.8912  168.3501 C.ar    1  UNL1        0.0843
      7 C         140.1936  142.2115  168.8327 C.ar    1  UNL1        0.0184
      8 C         141.0803  143.1248  169.6262 C.ar    1  UNL1        0.0580
      9 CL        140.5571  144.4452  170.1088 Cl      1  UNL1       -0.0822
     10 C         142.4901  142.7178  169.9371 C.ar    1  UNL1        0.0137
     11 C         143.0134  141.3974  169.4545 C.ar    1  UNL1        0.0307
     12 C         142.1266  140.4842  168.6610 C.ar    1  UNL1        0.1447
     13 F         142.6498  139.1637  168.1783 F       1  UNL1       -0.2040
     14 C         138.6998  138.0466  164.3852 C.3     1  UNL1        0.1425
     15 C         138.7532  141.4701  159.4581 C.2     1  UNL1        0.4049
     16 O         138.1793  142.8553  159.5010 O.2     1  UNL1       -0.2262
     17 N         138.7399  140.6142  160.6899 N.am    1  UNL1       -0.2432
     18 C         139.3138  139.2291  160.6469 C.3     1  UNL1        0.1141
     19 C         139.3004  138.3732  161.8787 C.3     1  UNL1        0.0943
     20 N         138.7132  138.9025  163.1534 N.3     1  UNL1       -0.2632
     21 C         138.1393  140.2876  163.1963 C.3     1  UNL1        0.0943
     22 C         138.1526  141.1435  161.9646 C.3     1  UNL1        0.1141
     23 O         139.3405  140.9409  158.1834 O.3     1  UNL1       -0.4345
     24 C         136.9877  140.9825  157.0821 C.3     1  UNL1        0.0513
     25 C         138.4591  140.7045  156.9929 C.3     1  UNL1        0.2102
@<TRIPOS>BOND
     1    24    25    1
     2    25    23    1
     3    23    15    1
     4    15    16    2
     5    15    17   am
     6    17    18    1
     7    18    19    1
     8    19    20    1
     9    20    14    1
    10    14     1    1
    11     1     2   ar
    12     2     3   ar
    13     3     4   ar
    14     4     6    1
    15     6     7   ar
    16     7     8   ar
    17     8     9    1
    18     8    10   ar
    19    10    11   ar
    20    11    12   ar
    21    12    13    1
    22     4     5   ar
    23    20    21    1
    24    21    22    1
    25    22    17    1
    26     5     1   ar
    27    12     6   ar
@<TRIPOS>MOLECULE
*****
 25 27 0 0 0
SMALL
GASTEIGER

@<TRIPOS>ATOM
      1 C         143.0696  138.4080  157.3955 C.ar    1  UNL1        0.1969
      2 N         144.1077  138.5053  156.3170 N.ar    1  UNL1       -0.0588
      3 O         144.2874  137.1400  155.7221 O.2     1  UNL1       -0.3326
      4 C         143.3604  136.1989  156.4330 C.ar    1  UNL1        0.2620
      5 N         142.6078  136.9826  157.4671 N.ar    1  UNL1       -0.1896
      6 C         143.2120  134.7319  156.1579 C.ar    1  UNL1        0.0843
      7 C         142.9395  134.2543  154.7624 C.ar    1  UNL1        0.0184
      8 C         142.7912  132.7872  154.4873 C.ar    1  UNL1        0.0580
      9 CL        142.5187  132.3096  153.0917 Cl      1  UNL1       -0.0822
     10 C         142.9153  131.7977  155.6078 C.ar    1  UNL1        0.0137
     11 C         143.1878  132.2754  157.0034 C.ar    1  UNL1        0.0307
     12 C         143.3362  133.7425  157.2784 C.ar    1  UNL1        0.1447
     13 F         143.6087  134.2201  158.6741 F       1  UNL1       -0.2040
     14 C         142.5795  139.5377  158.2520 C.3     1  UNL1        0.1425
     15 C         145.1001  140.5602  163.6000 C.2     1  UNL1        0.4049
     16 O         145.2617  139.4363  164.5801 O.2     1  UNL1       -0.2262
     17 N         144.4700  140.3046  162.2630 N.am    1  UNL1       -0.2432
     18 C         144.3083  141.4285  161.2828 C.3     1  UNL1        0.1141
     19 C         143.6782  141.1728  159.9458 C.3     1  UNL1        0.0943
     20 N         143.2097  139.7933  159.5890 N.3     1  UNL1       -0.2632
     21 C         143.3713  138.6694  160.5691 C.3     1  UNL1        0.0943
     22 C         144.0015  138.9251  161.9061 C.3     1  UNL1        0.1141
     23 O         145.5686  141.9397  163.9568 O.3     1  UNL1       -0.4345
     24 C         143.9763  143.9819  164.1674 C.3     1  UNL1        0.0513
     25 C         144.7038  142.8314  164.7977 C.3     1  UNL1        0.2102
@<TRIPOS>BOND
     1    24    25    1
     2    25    23    1
     3    23    15    1
     4    15    16    2
     5    15    17   am
     6    17    18    1
     7    18    19    1
     8    19    20    1
     9    20    14    1
    10    14     1    1
    11     1     2   ar
    12     2     3   ar
    13     3     4   ar
    14     4     6    1
    15     6     7   ar
    16     7     8   ar
    17     8     9    1
    18     8    10   ar
    19    10    11   ar
    20    11    12   ar
    21    12    13    1
    22     4     5   ar
    23    20    21    1
    24    21    22    1
    25    22    17    1
    26     5     1   ar
    27    12     6   ar
@<TRIPOS>MOLECULE
*****
 25 27 0 0 0
SMALL
GASTEIGER

@<TRIPOS>ATOM
      1 C         138.6834  140.5861  162.8678 C.ar    1  UNL1        0.1969
      2 N         137.3470  141.2338  162.6566 N.ar    1  UNL1       -0.0588
      3 O         137.5185  142.3332  161.6505 O.2     1  UNL1       -0.3326
      4 C         138.9609  142.3649  161.2400 C.ar    1  UNL1        0.2620
      5 N         139.6808  141.2852  161.9923 N.ar    1  UNL1       -0.1896
      6 C         139.5754  143.3103  160.2508 C.ar    1  UNL1        0.0843
      7 C         139.2398  143.1937  158.7935 C.ar    1  UNL1        0.0184
      8 C         139.8543  144.1391  157.8044 C.ar    1  UNL1        0.0580
      9 CL        139.5187  144.0225  156.3471 Cl      1  UNL1       -0.0822
     10 C         140.8045  145.2012  158.2725 C.ar    1  UNL1        0.0137
     11 C         141.1402  145.3179  159.7298 C.ar    1  UNL1        0.0307
     12 C         140.5256  144.3724  160.7189 C.ar    1  UNL1        0.1447
     13 F         140.8612  144.4890  162.1763 F       1  UNL1       -0.2040
     14 C         138.9717  139.4406  163.7922 C.3     1  UNL1        0.1425
     15 C         139.2749  140.3661  169.7127 C.2     1  UNL1        0.4049
     16 O         138.3736  139.6037  170.6381 O.2     1  UNL1       -0.2262
     17 N         139.1991  140.1347  168.2325 N.am    1  UNL1       -0.2432
     18 C         140.1004  140.8971  167.3071 C.3     1  UNL1        0.1141
     19 C         140.0246  140.6657  165.8270 C.3     1  UNL1        0.0943
     20 N         139.0475  139.6720  165.2723 N.3     1  UNL1       -0.2632
     21 C         138.1462  138.9096  166.1977 C.3     1  UNL1        0.0943
     22 C         138.2220  139.1410  167.6778 C.3     1  UNL1        0.1141
     23 O         140.2519  141.3598  170.2674 O.3     1  UNL1       -0.4345
     24 C         140.5128  143.9124  169.8596 C.3     1  UNL1        0.0513
     25 C         139.8163  142.7696  170.5371 C.3     1  UNL1        0.2102
@<TRIPOS>BOND
     1    24    25    1
     2    25    23    1
     3    23    15    1
     4    15    16    2
     5    15    17   am
     6    17    18    1
     7    18    19    1
     8    19    20    1
     9    20    14    1
    10    14     1    1
    11     1     2   ar
    12     2     3   ar
    13     3     4   ar
    14     4     6    1
    15     6     7   ar
    16     7     8   ar
    17     8     9    1
    18     8    10   ar
    19    10    11   ar
    20    11    12   ar
    21    12    13    1
    22     4     5   ar
    23    20    21    1
    24    21    22    1
    25    22    17    1
    26     5     1   ar
    27    12     6   ar
@<TRIPOS>MOLECULE
*****
 25 27 0 0 0
SMALL
GASTEIGER

@<TRIPOS>ATOM
      1 C         142.2715  137.6231  158.4048 C.ar    1  UNL1        0.1969
      2 N         140.9771  138.3541  158.6053 N.ar    1  UNL1       -0.0588
      3 O         140.8457  138.6722  160.0653 O.2     1  UNL1       -0.3326
      4 C         142.0590  138.1378  160.7671 C.ar    1  UNL1        0.2620
      5 N         142.9401  137.4895  159.7409 N.ar    1  UNL1       -0.1896
      6 C         142.3414  138.2348  162.2370 C.ar    1  UNL1        0.0843
      7 C         143.6192  138.8576  162.7157 C.ar    1  UNL1        0.0184
      8 C         143.9017  138.9546  164.1857 C.ar    1  UNL1        0.0580
      9 CL        145.1795  139.5775  164.6644 Cl      1  UNL1       -0.0822
     10 C         142.9064  138.4287  165.1770 C.ar    1  UNL1        0.0137
     11 C         141.6284  137.8058  164.6983 C.ar    1  UNL1        0.0307
     12 C         141.3461  137.7089  163.2283 C.ar    1  UNL1        0.1447
     13 F         140.0682  137.0859  162.7496 F       1  UNL1       -0.2040
     14 C         142.8038  137.1150  157.0977 C.3     1  UNL1        0.1425
     15 C         142.1062  131.3432  155.6144 C.2     1  UNL1        0.4049
     16 O         142.8408  130.2793  156.3750 O.2     1  UNL1       -0.2262
     17 N         142.2806  132.7862  155.9853 N.am    1  UNL1       -0.2432
     18 C         141.5461  133.8501  155.2247 C.3     1  UNL1        0.1141
     19 C         141.7205  135.2930  155.5955 C.3     1  UNL1        0.0943
     20 N         142.6294  135.6721  156.7269 N.3     1  UNL1       -0.2632
     21 C         143.3639  134.6082  157.4875 C.3     1  UNL1        0.0943
     22 C         143.1896  133.1652  157.1167 C.3     1  UNL1        0.1141
     23 O         141.1973  130.9642  154.4830 O.3     1  UNL1       -0.4345
     24 C         139.6491  128.9792  155.1257 C.3     1  UNL1        0.0513
     25 C         139.8271  130.4256  154.7700 C.3     1  UNL1        0.2102
@<TRIPOS>BOND
     1    24    25    1
     2    25    23    1
     3    23    15    1
     4    15    16    2
     5    15    17   am
     6    17    18    1
     7    18    19    1
     8    19    20    1
     9    20    14    1
    10    14     1    1
    11     1     2   ar
    12     2     3   ar
    13     3     4   ar
    14     4     6    1
    15     6     7   ar
    16     7     8   ar
    17     8     9    1
    18     8    10   ar
    19    10    11   ar
    20    11    12   ar
    21    12    13    1
    22     4     5   ar
    23    20    21    1
    24    21    22    1
    25    22    17    1
    26     5     1   ar
    27    12     6   ar
