@<TRIPOS>MOLECULE
*****
 36 38 0 0 0
SMALL
GASTEIGER

@<TRIPOS>ATOM
      1 C         141.4606  143.0486  164.4468 C.ar    1  UNL1       -0.0185
      2 C         142.8737  142.7024  164.8121 C.ar    1  UNL1       -0.0041
      3 C         143.2147  142.3374  166.2265 C.ar    1  UNL1        0.0057
      4 C         142.1428  142.3186  167.2755 C.ar    1  UNL1        0.0696
      5 C         140.7297  142.6649  166.9102 C.ar    1  UNL1        0.0095
      6 C         140.3886  143.0298  165.4959 C.ar    1  UNL1        0.0677
      7 C         140.0963  144.5084  158.7893 C.2     1  UNL1        0.2490
      8 O         140.0514  145.9498  158.3767 O.2     1  UNL1       -0.2699
      9 N         140.4373  144.1435  160.2037 N.am    1  UNL1       -0.2761
     10 C         140.4822  142.7020  160.6163 C.3     1  UNL1        0.0940
     11 C         140.8233  142.3371  162.0307 C.3     1  UNL1        0.0259
     12 C         141.1195  143.4136  163.0324 C.3     1  UNL1        0.0257
     13 C         141.0747  144.8550  162.6198 C.3     1  UNL1        0.0259
     14 C         140.7336  145.2199  161.2054 C.3     1  UNL1        0.0940
     15 C         138.1443  141.7227  156.7448 C.ar    1  UNL1        0.0686
     16 C         139.2074  141.2791  155.7841 C.ar    1  UNL1        0.0103
     17 C         140.5668  141.9119  155.8251 C.ar    1  UNL1        0.0008
     18 C         140.8631  142.9883  156.8268 C.ar    1  UNL1        0.0046
     19 C         139.8000  143.4319  157.7875 C.ar    1  UNL1        0.0542
     20 C         138.4406  142.7991  157.7465 C.ar    1  UNL1        0.0148
     21 N         135.4256  140.4571  156.6628 N.1     1  UNL1       -0.1908
     22 C         136.7850  141.0899  156.7038 C.1     1  UNL1        0.1004
     23 C         142.4838  141.9537  168.6899 C.2     1  UNL1        0.3078
     24 O         143.6398  142.6175  169.3778 O.2     1  UNL1       -0.2516
     25 N         141.6690  140.9250  169.4164 N.am    1  UNL1       -0.1708
     26 H         140.9103  140.4893  168.9649 H       1  UNL1        0.2545
     27 C         142.0102  140.5600  170.8308 C.2     1  UNL1        0.3751
     28 N         141.0061  140.7757  171.9240 N.pl3   1  UNL1       -0.1313
     29 N         143.3554  139.9793  171.1519 N.pl3   1  UNL1       -0.2906
     30 H         140.1231  141.1568  171.7133 H       1  UNL1        0.3060
     31 H         144.0144  139.8378  170.4343 H       1  UNL1        0.2545
     32 H         143.5793  139.7398  172.0802 H       1  UNL1        0.2545
     33 C         138.9756  143.3761  165.1306 C.3     1  UNL1        0.4183
     34 F         137.5626  143.7223  164.7653 F       1  UNL1       -0.1659
     35 F         138.6998  141.9327  164.8295 F       1  UNL1       -0.1659
     36 F         139.2514  144.8194  165.4317 F       1  UNL1       -0.1659
@<TRIPOS>BOND
     1    21    22    3
     2    22    15    1
     3    15    16   ar
     4    16    17   ar
     5    17    18   ar
     6    18    19   ar
     7    19     7    1
     8     7     8    2
     9     7     9   am
    10     9    10    1
    11    10    11    1
    12    11    12    1
    13    12     1    1
    14     1     2   ar
    15     2     3   ar
    16     3     4   ar
    17     4    23    1
    18    23    24    2
    19    23    25   am
    20    25    27    1
    21    27    28    2
    22    27    29    1
    23     4     5   ar
    24     5     6   ar
    25     6    33    1
    26    33    34    1
    27    33    35    1
    28    33    36    1
    29    12    13    1
    30    13    14    1
    31    19    20   ar
    32    20    15   ar
    33    14     9    1
    34     6     1   ar
    35    25    26    1
    36    28    30    1
    37    29    31    1
    38    29    32    1
@<TRIPOS>MOLECULE
*****
 36 38 0 0 0
SMALL
GASTEIGER

@<TRIPOS>ATOM
      1 C         141.4965  143.0342  164.4551 C.ar    1  UNL1       -0.0185
      2 C         140.4116  142.8884  165.4806 C.ar    1  UNL1       -0.0041
      3 C         140.7588  142.5200  166.8926 C.ar    1  UNL1        0.0057
      4 C         142.1909  142.2973  167.2791 C.ar    1  UNL1        0.0696
      5 C         143.2759  142.4431  166.2536 C.ar    1  UNL1        0.0095
      6 C         142.9287  142.8115  164.8416 C.ar    1  UNL1        0.0677
      7 C         140.1078  144.5078  158.8072 C.2     1  UNL1        0.2490
      8 O         140.0495  145.9506  158.4012 O.2     1  UNL1       -0.2699
      9 N         140.4550  144.1394  160.2191 N.am    1  UNL1       -0.2761
     10 C         140.5133  142.6965  160.6251 C.3     1  UNL1        0.0940
     11 C         140.8605  142.3282  162.0371 C.3     1  UNL1        0.0259
     12 C         141.1493  143.4026  163.0431 C.3     1  UNL1        0.0257
     13 C         141.0911  144.8454  162.6372 C.3     1  UNL1        0.0259
     14 C         140.7439  145.2138  161.2252 C.3     1  UNL1        0.0940
     15 C         138.1741  141.7188  156.7498 C.ar    1  UNL1        0.0686
     16 C         139.2410  141.2845  155.7890 C.ar    1  UNL1        0.0103
     17 C         140.5968  141.9247  155.8342 C.ar    1  UNL1        0.0008
     18 C         140.8857  142.9991  156.8403 C.ar    1  UNL1        0.0046
     19 C         139.8189  143.4333  157.8011 C.ar    1  UNL1        0.0542
     20 C         138.4631  142.7932  157.7558 C.ar    1  UNL1        0.0148
     21 N         135.4626  140.4385  156.6594 N.1     1  UNL1       -0.1908
     22 C         136.8184  141.0787  156.7046 C.1     1  UNL1        0.1004
     23 C         142.5381  141.9289  168.6911 C.2     1  UNL1        0.3078
     24 O         143.7160  142.5681  169.3650 O.2     1  UNL1       -0.2516
     25 N         141.7074  140.9214  169.4292 N.am    1  UNL1       -0.1708
     26 H         140.9343  140.5019  168.9869 H       1  UNL1        0.2545
     27 C         142.0546  140.5530  170.8412 C.2     1  UNL1        0.3751
     28 N         141.0649  140.7898  171.9432 N.pl3   1  UNL1       -0.1313
     29 N         143.3916  139.9477  171.1513 N.pl3   1  UNL1       -0.2906
     30 H         140.1874  141.1871  171.7397 H       1  UNL1        0.3060
     31 H         144.0412  139.7922  170.4280 H       1  UNL1        0.2545
     32 H         143.6195  139.7059  172.0780 H       1  UNL1        0.2545
     33 C         144.0136  142.9572  163.8161 C.3     1  UNL1        0.4183
     34 F         145.0986  143.1030  162.7906 F       1  UNL1       -0.1659
     35 F         144.1602  144.4058  164.1770 F       1  UNL1       -0.1659
     36 F         143.8671  141.5087  163.4552 F       1  UNL1       -0.1659
@<TRIPOS>BOND
     1    21    22    3
     2    22    15    1
     3    15    16   ar
     4    16    17   ar
     5    17    18   ar
     6    18    19   ar
     7    19     7    1
     8     7     8    2
     9     7     9   am
    10     9    10    1
    11    10    11    1
    12    11    12    1
    13    12     1    1
    14     1     2   ar
    15     2     3   ar
    16     3     4   ar
    17     4    23    1
    18    23    24    2
    19    23    25   am
    20    25    27    1
    21    27    28    2
    22    27    29    1
    23     4     5   ar
    24     5     6   ar
    25     6    33    1
    26    33    34    1
    27    33    35    1
    28    33    36    1
    29    12    13    1
    30    13    14    1
    31    19    20   ar
    32    20    15   ar
    33    14     9    1
    34     6     1   ar
    35    25    26    1
    36    28    30    1
    37    29    31    1
    38    29    32    1
@<TRIPOS>MOLECULE
*****
 36 38 0 0 0
SMALL
GASTEIGER

@<TRIPOS>ATOM
      1 C         142.7327  139.6421  164.4410 C.ar    1  UNL1       -0.0185
      2 C         143.3411  138.5866  165.3161 C.ar    1  UNL1       -0.0041
      3 C         143.1844  138.6658  166.8059 C.ar    1  UNL1        0.0057
      4 C         142.4195  139.8004  167.4204 C.ar    1  UNL1        0.0696
      5 C         141.8112  140.8558  166.5452 C.ar    1  UNL1        0.0095
      6 C         141.9678  140.7767  165.0555 C.ar    1  UNL1        0.0677
      7 C         143.3590  139.3256  158.4822 C.2     1  UNL1        0.2490
      8 O         144.4933  140.0392  157.8083 O.2     1  UNL1       -0.2699
      9 N         143.2024  139.4047  159.9718 N.am    1  UNL1       -0.2761
     10 C         142.0681  138.6912  160.6457 C.3     1  UNL1        0.0940
     11 C         141.9115  138.7703  162.1355 C.3     1  UNL1        0.0259
     12 C         142.8893  139.5630  162.9513 C.3     1  UNL1        0.0257
     13 C         144.0236  140.2766  162.2774 C.3     1  UNL1        0.0259
     14 C         144.1802  140.1975  160.7877 C.3     1  UNL1        0.0940
     15 C         141.7325  136.3346  156.4430 C.ar    1  UNL1        0.0686
     16 C         140.4258  136.9475  156.0346 C.ar    1  UNL1        0.0103
     17 C         140.0968  138.3531  156.4420 C.ar    1  UNL1        0.0008
     18 C         141.0745  139.1458  157.2578 C.ar    1  UNL1        0.0046
     19 C         142.3812  138.5329  157.6663 C.ar    1  UNL1        0.0542
     20 C         142.7102  137.1273  157.2589 C.ar    1  UNL1        0.0148
     21 N         142.3904  133.5233  155.6282 N.1     1  UNL1       -0.1908
     22 C         142.0615  134.9289  156.0356 C.1     1  UNL1        0.1004
     23 C         142.2630  139.8795  168.9101 C.2     1  UNL1        0.3078
     24 O         142.8456  138.8080  169.7834 O.2     1  UNL1       -0.2516
     25 N         141.5238  141.0300  169.5265 N.am    1  UNL1       -0.1708
     26 H         141.1415  141.7332  168.9533 H       1  UNL1        0.2545
     27 C         141.3673  141.1091  171.0162 C.2     1  UNL1        0.3751
     28 N         142.0958  142.1663  171.7919 N.pl3   1  UNL1       -0.1313
     29 N         140.4822  140.1309  171.7303 N.pl3   1  UNL1       -0.2906
     30 H         142.6766  142.8083  171.3232 H       1  UNL1        0.3060
     31 H         140.0041  139.4370  171.2212 H       1  UNL1        0.2545
     32 H         140.3795  140.1828  172.7080 H       1  UNL1        0.2545
     33 C         141.3595  141.8322  164.1803 C.3     1  UNL1        0.4183
     34 F         140.7511  142.8876  163.3052 F       1  UNL1       -0.1659
     35 F         142.6167  142.6436  164.2850 F       1  UNL1       -0.1659
     36 F         140.1022  141.0208  164.0757 F       1  UNL1       -0.1659
@<TRIPOS>BOND
     1    21    22    3
     2    22    15    1
     3    15    16   ar
     4    16    17   ar
     5    17    18   ar
     6    18    19   ar
     7    19     7    1
     8     7     8    2
     9     7     9   am
    10     9    10    1
    11    10    11    1
    12    11    12    1
    13    12     1    1
    14     1     2   ar
    15     2     3   ar
    16     3     4   ar
    17     4    23    1
    18    23    24    2
    19    23    25   am
    20    25    27    1
    21    27    28    2
    22    27    29    1
    23     4     5   ar
    24     5     6   ar
    25     6    33    1
    26    33    34    1
    27    33    35    1
    28    33    36    1
    29    12    13    1
    30    13    14    1
    31    19    20   ar
    32    20    15   ar
    33    14     9    1
    34     6     1   ar
    35    25    26    1
    36    28    30    1
    37    29    31    1
    38    29    32    1
@<TRIPOS>MOLECULE
*****
 36 38 0 0 0
SMALL
GASTEIGER

@<TRIPOS>ATOM
      1 C         139.8548  141.1841  164.7196 C.ar    1  UNL1       -0.0185
      2 C         140.3630  142.5421  165.1037 C.ar    1  UNL1       -0.0041
      3 C         140.6766  142.8474  166.5384 C.ar    1  UNL1        0.0057
      4 C         140.4820  141.7947  167.5891 C.ar    1  UNL1        0.0696
      5 C         139.9738  140.4367  167.2050 C.ar    1  UNL1        0.0095
      6 C         139.6602  140.1314  165.7703 C.ar    1  UNL1        0.0677
      7 C         138.6003  139.9630  158.9807 C.2     1  UNL1        0.2490
      8 O         137.2063  140.1537  158.4607 O.2     1  UNL1       -0.2699
      9 N         138.9139  140.2683  160.4154 N.am    1  UNL1       -0.2761
     10 C         140.3079  140.0775  160.9354 C.3     1  UNL1        0.0940
     11 C         140.6215  140.3828  162.3702 C.3     1  UNL1        0.0259
     12 C         139.5411  140.8789  163.2849 C.3     1  UNL1        0.0257
     13 C         138.1471  141.0696  162.7649 C.3     1  UNL1        0.0259
     14 C         137.8335  140.7643  161.3302 C.3     1  UNL1        0.0940
     15 C         141.6568  139.9482  156.4494 C.ar    1  UNL1        0.0686
     16 C         141.8414  138.4749  156.2365 C.ar    1  UNL1        0.0103
     17 C         140.9456  137.4977  156.9383 C.ar    1  UNL1        0.0008
     18 C         139.8652  137.9936  157.8530 C.ar    1  UNL1        0.0046
     19 C         139.6807  139.4669  158.0659 C.ar    1  UNL1        0.0542
     20 C         140.5764  140.4442  157.3641 C.ar    1  UNL1        0.0148
     21 N         143.4483  141.9027  155.0458 N.1     1  UNL1       -0.1908
     22 C         142.5526  140.9254  155.7476 C.1     1  UNL1        0.1004
     23 C         140.7957  142.1000  169.0238 C.2     1  UNL1        0.3078
     24 O         139.7265  141.9743  170.0684 O.2     1  UNL1       -0.2516
     25 N         142.1784  142.5309  169.4139 N.am    1  UNL1       -0.1708
     26 H         142.8802  142.6134  168.7283 H       1  UNL1        0.2545
     27 C         142.4920  142.8362  170.8487 C.2     1  UNL1        0.3751
     28 N         141.9158  141.9838  171.9401 N.pl3   1  UNL1       -0.1313
     29 N         143.3819  143.9940  171.1920 N.pl3   1  UNL1       -0.2906
     30 H         141.3318  141.2239  171.7148 H       1  UNL1        0.3060
     31 H         143.7601  144.5534  170.4756 H       1  UNL1        0.2545
     32 H         143.5877  144.1943  172.1336 H       1  UNL1        0.2545
     33 C         139.1519  138.7734  165.3862 C.3     1  UNL1        0.4183
     34 F         138.6437  137.4154  165.0022 F       1  UNL1       -0.1659
     35 F         137.7447  139.2299  165.6342 F       1  UNL1       -0.1659
     36 F         140.5591  138.3169  165.1383 F       1  UNL1       -0.1659
@<TRIPOS>BOND
     1    21    22    3
     2    22    15    1
     3    15    16   ar
     4    16    17   ar
     5    17    18   ar
     6    18    19   ar
     7    19     7    1
     8     7     8    2
     9     7     9   am
    10     9    10    1
    11    10    11    1
    12    11    12    1
    13    12     1    1
    14     1     2   ar
    15     2     3   ar
    16     3     4   ar
    17     4    23    1
    18    23    24    2
    19    23    25   am
    20    25    27    1
    21    27    28    2
    22    27    29    1
    23     4     5   ar
    24     5     6   ar
    25     6    33    1
    26    33    34    1
    27    33    35    1
    28    33    36    1
    29    12    13    1
    30    13    14    1
    31    19    20   ar
    32    20    15   ar
    33    14     9    1
    34     6     1   ar
    35    25    26    1
    36    28    30    1
    37    29    31    1
    38    29    32    1
@<TRIPOS>MOLECULE
*****
 36 38 0 0 0
SMALL
GASTEIGER

@<TRIPOS>ATOM
      1 C         141.2466  139.7022  164.3834 C.ar    1  UNL1       -0.0185
      2 C         139.8000  139.8828  164.7366 C.ar    1  UNL1       -0.0041
      3 C         139.4000  140.1176  166.1631 C.ar    1  UNL1        0.0057
      4 C         140.4465  140.1717  167.2363 C.ar    1  UNL1        0.0696
      5 C         141.8930  139.9911  166.8831 C.ar    1  UNL1        0.0095
      6 C         142.2931  139.7563  165.4567 C.ar    1  UNL1        0.0677
      7 C         142.8469  138.7631  158.6775 C.2     1  UNL1        0.2490
      8 O         142.9830  137.3627  158.1575 O.2     1  UNL1       -0.2699
      9 N         142.4468  138.9979  160.1040 N.am    1  UNL1       -0.2761
     10 C         142.3107  140.3982  160.6240 C.3     1  UNL1        0.0940
     11 C         141.9106  140.6330  162.0505 C.3     1  UNL1        0.0259
     12 C         141.6467  139.4674  162.9569 C.3     1  UNL1        0.0257
     13 C         141.7828  138.0670  162.4369 C.3     1  UNL1        0.0259
     14 C         142.1828  137.8322  161.0105 C.3     1  UNL1        0.0940
     15 C         144.7638  141.6466  156.7382 C.ar    1  UNL1        0.0686
     16 C         143.6390  142.2598  155.9581 C.ar    1  UNL1        0.0103
     17 C         142.2501  141.7076  156.0845 C.ar    1  UNL1        0.0008
     18 C         141.9860  140.5420  156.9910 C.ar    1  UNL1        0.0046
     19 C         143.1109  139.9287  157.7710 C.ar    1  UNL1        0.0542
     20 C         144.4998  140.4810  157.6446 C.ar    1  UNL1        0.0148
     21 N         147.5416  142.7511  156.4854 N.1     1  UNL1       -0.1908
     22 C         146.1527  142.1989  156.6118 C.1     1  UNL1        0.1004
     23 C         140.0464  140.4065  168.6628 C.2     1  UNL1        0.3078
     24 O         138.9121  139.6285  169.2614 O.2     1  UNL1       -0.2516
     25 N         140.7805  141.4192  169.4907 N.am    1  UNL1       -0.1708
     26 H         141.5250  141.9299  169.0978 H       1  UNL1        0.2545
     27 C         140.3804  141.6540  170.9172 C.2     1  UNL1        0.3751
     28 N         140.6617  140.6098  171.9566 N.pl3   1  UNL1       -0.1313
     29 N         139.6990  142.9330  171.3042 N.pl3   1  UNL1       -0.2906
     30 H         141.1089  139.7703  171.7026 H       1  UNL1        0.3060
     31 H         139.5144  143.6184  170.6220 H       1  UNL1        0.2545
     32 H         139.4364  143.0871  172.2404 H       1  UNL1        0.2545
     33 C         143.7397  139.5756  165.1035 C.3     1  UNL1        0.4183
     34 F         145.1863  139.3949  164.7502 F       1  UNL1       -0.1659
     35 F         143.6178  138.1024  165.3578 F       1  UNL1       -0.1659
     36 F         143.8616  141.0488  164.8491 F       1  UNL1       -0.1659
@<TRIPOS>BOND
     1    21    22    3
     2    22    15    1
     3    15    16   ar
     4    16    17   ar
     5    17    18   ar
     6    18    19   ar
     7    19     7    1
     8     7     8    2
     9     7     9   am
    10     9    10    1
    11    10    11    1
    12    11    12    1
    13    12     1    1
    14     1     2   ar
    15     2     3   ar
    16     3     4   ar
    17     4    23    1
    18    23    24    2
    19    23    25   am
    20    25    27    1
    21    27    28    2
    22    27    29    1
    23     4     5   ar
    24     5     6   ar
    25     6    33    1
    26    33    34    1
    27    33    35    1
    28    33    36    1
    29    12    13    1
    30    13    14    1
    31    19    20   ar
    32    20    15   ar
    33    14     9    1
    34     6     1   ar
    35    25    26    1
    36    28    30    1
    37    29    31    1
    38    29    32    1
@<TRIPOS>MOLECULE
*****
 36 38 0 0 0
SMALL
GASTEIGER

@<TRIPOS>ATOM
      1 C         141.1350  143.0865  164.4048 C.ar    1  UNL1       -0.0185
      2 C         142.4888  142.5889  164.8167 C.ar    1  UNL1       -0.0041
      3 C         142.7651  142.2718  166.2566 C.ar    1  UNL1        0.0057
      4 C         141.6877  142.4523  167.2844 C.ar    1  UNL1        0.0696
      5 C         140.3339  142.9499  166.8725 C.ar    1  UNL1        0.0095
      6 C         140.0576  143.2670  165.4327 C.ar    1  UNL1        0.0677
      7 C         140.0296  144.3549  158.6455 C.2     1  UNL1        0.2490
      8 O         140.1685  145.7630  158.1476 O.2     1  UNL1       -0.2699
      9 N         140.3060  144.0378  160.0853 N.am    1  UNL1       -0.2761
     10 C         140.1671  142.6297  160.5832 C.3     1  UNL1        0.0940
     11 C         140.4434  142.3126  162.0231 C.3     1  UNL1        0.0259
     12 C         140.8587  143.4036  162.9650 C.3     1  UNL1        0.0257
     13 C         140.9976  144.8117  162.4671 C.3     1  UNL1        0.0259
     14 C         140.7212  145.1288  161.0273 C.3     1  UNL1        0.0940
     15 C         140.2283  141.4728  155.9244 C.ar    1  UNL1        0.0686
     16 C         138.7839  141.0818  155.8197 C.ar    1  UNL1        0.0103
     17 C         137.7548  141.7818  156.6569 C.ar    1  UNL1        0.0008
     18 C         138.1700  142.8728  157.5989 C.ar    1  UNL1        0.0046
     19 C         139.6143  143.2638  157.7036 C.ar    1  UNL1        0.0542
     20 C         140.6435  142.5638  156.8663 C.ar    1  UNL1        0.0148
     21 N         142.2865  140.0729  154.2500 N.1     1  UNL1       -0.1908
     22 C         141.2574  140.7729  155.0872 C.1     1  UNL1        0.1004
     23 C         141.9641  142.1352  168.7242 C.2     1  UNL1        0.3078
     24 O         143.3561  142.2668  169.2674 O.2     1  UNL1       -0.2516
     25 N         140.8484  141.6865  169.6209 N.am    1  UNL1       -0.1708
     26 H         139.9348  141.6002  169.2644 H       1  UNL1        0.2545
     27 C         141.1248  141.3694  171.0608 C.2     1  UNL1        0.3751
     28 N         142.0453  142.2451  171.8583 N.pl3   1  UNL1       -0.1313
     29 N         140.4808  140.1767  171.7031 N.pl3   1  UNL1       -0.2906
     30 H         142.4680  143.0279  171.4367 H       1  UNL1        0.3060
     31 H         139.8766  139.6020  171.1796 H       1  UNL1        0.2545
     32 H         140.6622  139.9686  172.6481 H       1  UNL1        0.2545
     33 C         138.7038  143.7646  165.0208 C.3     1  UNL1        0.4183
     34 F         137.3500  144.2622  164.6089 F       1  UNL1       -0.1659
     35 F         139.1522  145.1770  165.2532 F       1  UNL1       -0.1659
     36 F         138.2554  142.3522  164.7884 F       1  UNL1       -0.1659
@<TRIPOS>BOND
     1    21    22    3
     2    22    15    1
     3    15    16   ar
     4    16    17   ar
     5    17    18   ar
     6    18    19   ar
     7    19     7    1
     8     7     8    2
     9     7     9   am
    10     9    10    1
    11    10    11    1
    12    11    12    1
    13    12     1    1
    14     1     2   ar
    15     2     3   ar
    16     3     4   ar
    17     4    23    1
    18    23    24    2
    19    23    25   am
    20    25    27    1
    21    27    28    2
    22    27    29    1
    23     4     5   ar
    24     5     6   ar
    25     6    33    1
    26    33    34    1
    27    33    35    1
    28    33    36    1
    29    12    13    1
    30    13    14    1
    31    19    20   ar
    32    20    15   ar
    33    14     9    1
    34     6     1   ar
    35    25    26    1
    36    28    30    1
    37    29    31    1
    38    29    32    1
@<TRIPOS>MOLECULE
*****
 36 38 0 0 0
SMALL
GASTEIGER

@<TRIPOS>ATOM
      1 C         142.3364  139.3744  164.0203 C.ar    1  UNL1       -0.0185
      2 C         143.2557  138.6721  164.9751 C.ar    1  UNL1       -0.0041
      3 C         143.0377  138.7954  166.4540 C.ar    1  UNL1        0.0057
      4 C         141.9003  139.6210  166.9782 C.ar    1  UNL1        0.0696
      5 C         140.9809  140.3233  166.0234 C.ar    1  UNL1        0.0095
      6 C         141.1989  140.2000  164.5445 C.ar    1  UNL1        0.0677
      7 C         143.2083  138.8811  158.1046 C.2     1  UNL1        0.2490
      8 O         144.1411  139.8232  157.4028 O.2     1  UNL1       -0.2699
      9 N         142.9903  139.0044  159.5835 N.am    1  UNL1       -0.2761
     10 C         142.0576  138.0623  160.2852 C.3     1  UNL1        0.0940
     11 C         141.8396  138.1857  161.7642 C.3     1  UNL1        0.0259
     12 C         142.5544  139.2511  162.5414 C.3     1  UNL1        0.0257
     13 C         143.4871  140.1931  161.8396 C.3     1  UNL1        0.0259
     14 C         143.7051  140.0698  160.3607 C.3     1  UNL1        0.0940
     15 C         140.3857  136.9939  156.0501 C.ar    1  UNL1        0.0686
     16 C         141.0640  135.6851  155.7729 C.ar    1  UNL1        0.0103
     17 C         142.4571  135.4416  156.2729 C.ar    1  UNL1        0.0008
     18 C         143.1718  136.5069  157.0501 C.ar    1  UNL1        0.0046
     19 C         142.4935  137.8157  157.3273 C.ar    1  UNL1        0.0542
     20 C         141.1005  138.0592  156.8273 C.ar    1  UNL1        0.0148
     21 N         137.5995  137.4808  155.0500 N.1     1  UNL1       -0.1908
     22 C         138.9926  137.2373  155.5500 C.1     1  UNL1        0.1004
     23 C         141.6823  139.7443  168.4571 C.2     1  UNL1        0.3078
     24 O         142.6778  139.1574  169.4135 O.2     1  UNL1       -0.2516
     25 N         140.4688  140.4544  168.9797 N.am    1  UNL1       -0.1708
     26 H         139.8155  140.8396  168.3521 H       1  UNL1        0.2545
     27 C         140.2509  140.5777  170.4587 C.2     1  UNL1        0.3751
     28 N         140.0072  139.3503  171.2858 N.pl3   1  UNL1       -0.1313
     29 N         140.2766  141.9284  171.1106 N.pl3   1  UNL1       -0.2906
     30 H         139.9904  138.4638  170.8580 H       1  UNL1        0.3060
     31 H         140.4365  142.7340  170.5677 H       1  UNL1        0.2545
     32 H         140.1335  142.0094  172.0813 H       1  UNL1        0.2545
     33 C         140.2796  140.9022  163.5898 C.3     1  UNL1        0.4183
     34 F         139.3602  141.6045  162.6350 F       1  UNL1       -0.1659
     35 F         139.3860  139.6977  163.5643 F       1  UNL1       -0.1659
     36 F         141.1732  142.1067  163.6152 F       1  UNL1       -0.1659
@<TRIPOS>BOND
     1    21    22    3
     2    22    15    1
     3    15    16   ar
     4    16    17   ar
     5    17    18   ar
     6    18    19   ar
     7    19     7    1
     8     7     8    2
     9     7     9   am
    10     9    10    1
    11    10    11    1
    12    11    12    1
    13    12     1    1
    14     1     2   ar
    15     2     3   ar
    16     3     4   ar
    17     4    23    1
    18    23    24    2
    19    23    25   am
    20    25    27    1
    21    27    28    2
    22    27    29    1
    23     4     5   ar
    24     5     6   ar
    25     6    33    1
    26    33    34    1
    27    33    35    1
    28    33    36    1
    29    12    13    1
    30    13    14    1
    31    19    20   ar
    32    20    15   ar
    33    14     9    1
    34     6     1   ar
    35    25    26    1
    36    28    30    1
    37    29    31    1
    38    29    32    1
@<TRIPOS>MOLECULE
*****
 36 38 0 0 0
SMALL
GASTEIGER

@<TRIPOS>ATOM
      1 C         141.9017  142.7665  164.6116 C.ar    1  UNL1       -0.0185
      2 C         140.5350  142.7895  165.2292 C.ar    1  UNL1       -0.0041
      3 C         140.3697  142.5181  166.6953 C.ar    1  UNL1        0.0057
      4 C         141.5712  142.2237  167.5436 C.ar    1  UNL1        0.0696
      5 C         142.9380  142.2007  166.9260 C.ar    1  UNL1        0.0095
      6 C         143.1033  142.4721  165.4601 C.ar    1  UNL1        0.0677
      7 C         142.5629  143.8521  158.7479 C.2     1  UNL1        0.2490
      8 O         142.2884  145.2225  158.2032 O.2     1  UNL1       -0.2699
      9 N         142.3976  143.5807  160.2138 N.am    1  UNL1       -0.2761
     10 C         142.6720  142.2102  160.7585 C.3     1  UNL1        0.0940
     11 C         142.5067  141.9389  162.2245 C.3     1  UNL1        0.0259
     12 C         142.0670  143.0379  163.1457 C.3     1  UNL1        0.0257
     13 C         141.7926  144.4083  162.6011 C.3     1  UNL1        0.0259
     14 C         141.9578  144.6797  161.1351 C.3     1  UNL1        0.0940
     15 C         144.8634  141.5990  156.4281 C.ar    1  UNL1        0.0686
     16 C         143.8821  140.5551  155.9839 C.ar    1  UNL1        0.0103
     17 C         142.4611  140.6101  156.4610 C.ar    1  UNL1        0.0008
     18 C         142.0213  141.7091  157.3823 C.ar    1  UNL1        0.0046
     19 C         143.0026  142.7530  157.8265 C.ar    1  UNL1        0.0542
     20 C         144.4236  142.6979  157.3494 C.ar    1  UNL1        0.0148
     21 N         147.7055  141.4889  155.4738 N.1     1  UNL1       -0.1908
     22 C         146.2844  141.5439  155.9510 C.1     1  UNL1        0.1004
     23 C         141.4059  141.9523  169.0095 C.2     1  UNL1        0.3078
     24 O         141.5604  143.0674  170.0008 O.2     1  UNL1       -0.2516
     25 N         141.0862  140.5658  169.4842 N.am    1  UNL1       -0.1708
     26 H         140.9847  139.8339  168.8336 H       1  UNL1        0.2545
     27 C         140.9209  140.2944  170.9502 C.2     1  UNL1        0.3751
     28 N         141.8992  140.8652  171.9336 N.pl3   1  UNL1       -0.1313
     29 N         139.7773  139.4522  171.4328 N.pl3   1  UNL1       -0.2906
     30 H         142.6498  141.4180  171.6168 H       1  UNL1        0.3060
     31 H         139.1351  139.0776  170.7873 H       1  UNL1        0.2545
     32 H         139.6688  139.2741  172.3949 H       1  UNL1        0.2545
     33 C         144.4700  142.4491  164.8425 C.3     1  UNL1        0.4183
     34 F         145.8368  142.4261  164.2249 F       1  UNL1       -0.1659
     35 F         144.3785  140.9592  164.6953 F       1  UNL1       -0.1659
     36 F         144.5616  143.9391  164.9897 F       1  UNL1       -0.1659
@<TRIPOS>BOND
     1    21    22    3
     2    22    15    1
     3    15    16   ar
     4    16    17   ar
     5    17    18   ar
     6    18    19   ar
     7    19     7    1
     8     7     8    2
     9     7     9   am
    10     9    10    1
    11    10    11    1
    12    11    12    1
    13    12     1    1
    14     1     2   ar
    15     2     3   ar
    16     3     4   ar
    17     4    23    1
    18    23    24    2
    19    23    25   am
    20    25    27    1
    21    27    28    2
    22    27    29    1
    23     4     5   ar
    24     5     6   ar
    25     6    33    1
    26    33    34    1
    27    33    35    1
    28    33    36    1
    29    12    13    1
    30    13    14    1
    31    19    20   ar
    32    20    15   ar
    33    14     9    1
    34     6     1   ar
    35    25    26    1
    36    28    30    1
    37    29    31    1
    38    29    32    1
@<TRIPOS>MOLECULE
*****
 36 38 0 0 0
SMALL
GASTEIGER

@<TRIPOS>ATOM
      1 C         141.0792  142.2291  164.3006 C.ar    1  UNL1       -0.0185
      2 C         142.3081  141.5199  164.7874 C.ar    1  UNL1       -0.0041
      3 C         142.6216  141.4833  166.2538 C.ar    1  UNL1        0.0057
      4 C         141.7062  142.1559  167.2335 C.ar    1  UNL1        0.0696
      5 C         140.4773  142.8650  166.7467 C.ar    1  UNL1        0.0095
      6 C         140.1638  142.9017  165.2804 C.ar    1  UNL1        0.0677
      7 C         139.8250  142.3756  158.4350 C.2     1  UNL1        0.2490
      8 O         138.8855  141.3669  157.8435 O.2     1  UNL1       -0.2699
      9 N         140.1386  142.3390  159.9014 N.am    1  UNL1       -0.2761
     10 C         141.0780  143.3477  160.4929 C.3     1  UNL1        0.0940
     11 C         141.3916  143.3110  161.9594 C.3     1  UNL1        0.0259
     12 C         140.7656  142.2657  162.8343 C.3     1  UNL1        0.0257
     13 C         139.8262  141.2570  162.2427 C.3     1  UNL1        0.0259
     14 C         139.5126  141.2936  160.7764 C.3     1  UNL1        0.0940
     15 C         140.3322  145.7318  156.3787 C.ar    1  UNL1        0.0686
     16 C         141.7027  145.5117  155.8103 C.ar    1  UNL1        0.0103
     17 C         142.4474  144.2462  156.1168 C.ar    1  UNL1        0.0008
     18 C         141.8215  143.2008  156.9917 C.ar    1  UNL1        0.0046
     19 C         140.4510  143.4210  157.5601 C.ar    1  UNL1        0.0542
     20 C         139.7063  144.6865  157.2536 C.ar    1  UNL1        0.0148
     21 N         138.8429  148.2628  155.7656 N.1     1  UNL1       -0.1908
     22 C         139.5875  146.9973  156.0721 C.1     1  UNL1        0.1004
     23 C         142.0198  142.1192  168.6998 C.2     1  UNL1        0.3078
     24 O         143.2727  142.7633  169.2153 O.2     1  UNL1       -0.2516
     25 N         141.0805  141.4386  169.6509 N.am    1  UNL1       -0.1708
     26 H         140.2582  141.0159  169.3126 H       1  UNL1        0.2545
     27 C         141.3941  141.4020  171.1173 C.2     1  UNL1        0.3751
     28 N         140.5205  142.1377  172.0897 N.pl3   1  UNL1       -0.1313
     29 N         142.5813  140.6296  171.6113 N.pl3   1  UNL1       -0.2906
     30 H         139.7413  142.6447  171.7654 H       1  UNL1        0.3060
     31 H         143.1546  140.1467  170.9731 H       1  UNL1        0.2545
     32 H         142.7871  140.6056  172.5738 H       1  UNL1        0.2545
     33 C         138.9349  143.6109  164.7936 C.3     1  UNL1        0.4183
     34 F         137.7060  144.3200  164.3069 F       1  UNL1       -0.1659
     35 F         139.7213  144.8811  164.6591 F       1  UNL1       -0.1659
     36 F         138.1486  142.3406  164.9282 F       1  UNL1       -0.1659
@<TRIPOS>BOND
     1    21    22    3
     2    22    15    1
     3    15    16   ar
     4    16    17   ar
     5    17    18   ar
     6    18    19   ar
     7    19     7    1
     8     7     8    2
     9     7     9   am
    10     9    10    1
    11    10    11    1
    12    11    12    1
    13    12     1    1
    14     1     2   ar
    15     2     3   ar
    16     3     4   ar
    17     4    23    1
    18    23    24    2
    19    23    25   am
    20    25    27    1
    21    27    28    2
    22    27    29    1
    23     4     5   ar
    24     5     6   ar
    25     6    33    1
    26    33    34    1
    27    33    35    1
    28    33    36    1
    29    12    13    1
    30    13    14    1
    31    19    20   ar
    32    20    15   ar
    33    14     9    1
    34     6     1   ar
    35    25    26    1
    36    28    30    1
    37    29    31    1
    38    29    32    1
