@<TRIPOS>MOLECULE
*****
 37 41 0 0 0
SMALL
GASTEIGER

@<TRIPOS>ATOM
      1 C         142.6056  137.8820  157.9676 C.2     1  UNL1        0.2425
      2 O         142.0857  139.2889  157.9785 O.2     1  UNL1       -0.2733
      3 N         142.9706  137.2073  159.2566 N.am    1  UNL1       -0.3018
      4 H         143.3118  136.2838  159.2495 H       1  UNL1        0.1495
      5 C         142.8157  137.9396  160.5565 C.3     1  UNL1        0.1035
      6 C         141.6524  138.4500  161.3543 C.3     1  UNL1        0.0933
      7 N         142.5965  138.9753  162.3948 N.3     1  UNL1       -0.2711
      8 C         143.7597  138.4649  161.5971 C.3     1  UNL1        0.0933
      9 C         142.4416  139.7076  163.6947 C.3     1  UNL1        0.0576
     10 C         142.2928  141.2002  163.7015 C.3     1  UNL1        0.0163
     11 C         142.1379  141.9325  165.0013 C.3     1  UNL1        0.0057
     12 C         142.1318  141.1723  166.2945 C.3     1  UNL1        0.0224
     13 C         142.2805  139.6797  166.2876 C.3     1  UNL1        0.0057
     14 C         142.4355  138.9474  164.9877 C.3     1  UNL1        0.0163
     15 C         141.9769  141.9047  167.5942 C.ar    1  UNL1       -0.0225
     16 C         140.6775  142.5763  167.9266 C.ar    1  UNL1       -0.0043
     17 C         140.5227  143.3087  169.2264 C.ar    1  UNL1       -0.0003
     18 C         141.6673  143.3696  170.1939 C.ar    1  UNL1       -0.0000
     19 C         142.9667  142.6980  169.8617 C.ar    1  UNL1       -0.0003
     20 C         143.1215  141.9656  168.5618 C.ar    1  UNL1       -0.0043
     21 C         142.7605  137.1496  156.6678 C.3     1  UNL1        0.1747
     22 N         142.0411  135.8518  156.4477 N.pl3   1  UNL1       -0.3093
     23 H         141.1004  135.8535  156.1574 H       1  UNL1        0.1487
     24 C         145.5061  132.2540  158.1594 C.3     1  UNL1        0.1537
     25 N         144.3478  132.8978  157.4567 N.ar    1  UNL1       -0.2476
     26 N         143.9741  134.3491  157.5203 N.ar    1  UNL1       -0.1544
     27 C         142.7551  134.5515  156.6699 C.ar    1  UNL1        0.1500
     28 C         142.3755  133.2253  156.0807 C.ar    1  UNL1        0.0503
     29 C         141.2607  132.8163  155.1643 C.ar    1  UNL1        0.0082
     30 C         141.1302  131.3853  154.7341 C.ar    1  UNL1        0.0716
     31 C         142.1145  130.3633  155.2204 C.ar    1  UNL1        0.0054
     32 C         143.2294  130.7722  156.1368 C.ar    1  UNL1        0.0188
     33 C         143.3598  132.2032  156.5670 C.ar    1  UNL1        0.0807
     34 C         140.0153  130.9763  153.8177 C.3     1  UNL1        0.4186
     35 F         138.9005  130.5673  152.9013 F       1  UNL1       -0.1659
     36 F         139.2091  130.5258  154.9996 F       1  UNL1       -0.1659
     37 F         140.8216  131.4268  152.6357 F       1  UNL1       -0.1659
@<TRIPOS>BOND
     1    24    25    1
     2    25    26   ar
     3    26    27   ar
     4    27    22    1
     5    22    21    1
     6    21     1    1
     7     1     2    2
     8     1     3   am
     9     3     5    1
    10     5     6    1
    11     6     7    1
    12     9     7    1
    13     9    10    1
    14    10    11    1
    15    11    12    1
    16    12    15    1
    17    15    16   ar
    18    16    17   ar
    19    17    18   ar
    20    18    19   ar
    21    19    20   ar
    22    12    13    1
    23    13    14    1
    24     7     8    1
    25    27    28   ar
    26    28    29   ar
    27    29    30   ar
    28    30    34    1
    29    34    35    1
    30    34    36    1
    31    34    37    1
    32    30    31   ar
    33    31    32   ar
    34    32    33   ar
    35    33    25   ar
    36     8     5    1
    37    33    28   ar
    38    14     9    1
    39    20    15   ar
    40    22    23    1
    41     3     4    1
@<TRIPOS>MOLECULE
*****
 37 41 0 0 0
SMALL
GASTEIGER

@<TRIPOS>ATOM
      1 C         142.6270  139.0172  157.9034 C.2     1  UNL1        0.2425
      2 O         141.6097  140.0577  158.2671 O.2     1  UNL1       -0.2733
      3 N         143.3349  138.2513  158.9814 N.am    1  UNL1       -0.3018
      4 H         144.0026  137.5683  158.7427 H       1  UNL1        0.1495
      5 C         143.0253  138.5259  160.4232 C.3     1  UNL1        0.1035
      6 C         143.4693  139.5481  161.4274 C.3     1  UNL1        0.0933
      7 N         142.5877  138.9143  162.4623 N.3     1  UNL1       -0.2711
      8 C         142.1438  137.8922  161.4582 C.3     1  UNL1        0.0933
      9 C         142.2782  139.1889  163.9041 C.3     1  UNL1        0.0576
     10 C         141.0677  139.9952  164.2709 C.3     1  UNL1        0.0163
     11 C         140.7581  140.2698  165.7126 C.3     1  UNL1        0.0057
     12 C         141.6591  139.7382  166.7877 C.3     1  UNL1        0.0224
     13 C         142.8696  138.9319  166.4209 C.3     1  UNL1        0.0057
     14 C         143.1791  138.6573  164.9790 C.3     1  UNL1        0.0163
     15 C         141.3495  140.0128  168.2294 C.ar    1  UNL1       -0.0225
     16 C         142.4648  140.1540  169.2224 C.ar    1  UNL1       -0.0043
     17 C         142.1551  140.4287  170.6642 C.ar    1  UNL1       -0.0003
     18 C         140.7300  140.5622  171.1129 C.ar    1  UNL1       -0.0000
     19 C         139.6146  140.4210  170.1200 C.ar    1  UNL1       -0.0003
     20 C         139.9244  140.1463  168.6782 C.ar    1  UNL1       -0.0043
     21 C         142.9365  138.7426  156.4616 C.3     1  UNL1        0.1747
     22 N         143.7863  137.5641  156.0882 N.pl3   1  UNL1       -0.3093
     23 H         144.7046  137.4898  156.4351 H       1  UNL1        0.1487
     24 C         141.2822  135.1460  152.1180 C.3     1  UNL1        0.1537
     25 N         142.0857  135.3875  153.3613 N.ar    1  UNL1       -0.2476
     26 N         142.4196  136.7266  153.9490 N.ar    1  UNL1       -0.1544
     27 C         143.2367  136.4990  155.1862 C.ar    1  UNL1        0.1500
     28 C         143.4078  135.0194  155.3631 C.ar    1  UNL1        0.0503
     29 C         144.1194  134.2088  156.4054 C.ar    1  UNL1        0.0082
     30 C         144.1196  132.7112  156.3199 C.ar    1  UNL1        0.0716
     31 C         143.4083  132.0243  155.1921 C.ar    1  UNL1        0.0054
     32 C         142.6967  132.8349  154.1497 C.ar    1  UNL1        0.0188
     33 C         142.6964  134.3324  154.2352 C.ar    1  UNL1        0.0807
     34 C         144.8313  131.9006  157.3623 C.3     1  UNL1        0.4186
     35 F         145.5429  131.0900  158.4047 F       1  UNL1       -0.1659
     36 F         144.7364  133.0502  158.3211 F       1  UNL1       -0.1659
     37 F         144.9262  130.7510  156.4035 F       1  UNL1       -0.1659
@<TRIPOS>BOND
     1    24    25    1
     2    25    26   ar
     3    26    27   ar
     4    27    22    1
     5    22    21    1
     6    21     1    1
     7     1     2    2
     8     1     3   am
     9     3     5    1
    10     5     6    1
    11     6     7    1
    12     9     7    1
    13     9    10    1
    14    10    11    1
    15    11    12    1
    16    12    15    1
    17    15    16   ar
    18    16    17   ar
    19    17    18   ar
    20    18    19   ar
    21    19    20   ar
    22    12    13    1
    23    13    14    1
    24     7     8    1
    25    27    28   ar
    26    28    29   ar
    27    29    30   ar
    28    30    34    1
    29    34    35    1
    30    34    36    1
    31    34    37    1
    32    30    31   ar
    33    31    32   ar
    34    32    33   ar
    35    33    25   ar
    36     8     5    1
    37    33    28   ar
    38    14     9    1
    39    20    15   ar
    40    22    23    1
    41     3     4    1
@<TRIPOS>MOLECULE
*****
 37 41 0 0 0
SMALL
GASTEIGER

@<TRIPOS>ATOM
      1 C         142.1548  137.6692  157.9323 C.2     1  UNL1        0.2425
      2 O         143.3309  137.5728  158.8584 O.2     1  UNL1       -0.2733
      3 N         140.8599  138.2464  158.4221 N.am    1  UNL1       -0.3018
      4 H         140.0880  138.3097  157.8143 H       1  UNL1        0.1495
      5 C         140.7410  138.7273  159.8379 C.3     1  UNL1        0.1035
      6 C         139.8395  138.4092  160.9940 C.3     1  UNL1        0.0933
      7 N         140.5728  139.4072  161.8403 N.3     1  UNL1       -0.2711
      8 C         141.4743  139.7251  160.6843 C.3     1  UNL1        0.0933
      9 C         140.4540  139.8880  163.2562 C.3     1  UNL1        0.0576
     10 C         140.7114  138.9439  164.3930 C.3     1  UNL1        0.0163
     11 C         140.5926  139.4247  165.8088 C.3     1  UNL1        0.0057
     12 C         140.2162  140.8497  166.0879 C.3     1  UNL1        0.0224
     13 C         139.9588  141.7938  164.9511 C.3     1  UNL1        0.0057
     14 C         140.0777  141.3130  163.5353 C.3     1  UNL1        0.0163
     15 C         140.0974  141.3304  167.5038 C.ar    1  UNL1       -0.0225
     16 C         140.4880  142.7356  167.8541 C.ar    1  UNL1       -0.0043
     17 C         140.3691  143.2162  169.2701 C.ar    1  UNL1       -0.0003
     18 C         139.8597  142.2916  170.3357 C.ar    1  UNL1       -0.0000
     19 C         139.4691  140.8863  169.9854 C.ar    1  UNL1       -0.0003
     20 C         139.5879  140.4057  168.5695 C.ar    1  UNL1       -0.0043
     21 C         142.2737  137.1884  156.5165 C.3     1  UNL1        0.1747
     22 N         141.7076  135.8548  156.1272 N.pl3   1  UNL1       -0.3093
     23 H         140.8389  135.8043  155.6669 H       1  UNL1        0.1487
     24 C         145.2569  132.4972  158.1296 C.3     1  UNL1        0.1537
     25 N         144.0967  133.0551  157.3598 N.ar    1  UNL1       -0.2476
     26 N         143.6638  134.4911  157.3349 N.ar    1  UNL1       -0.1544
     27 C         142.4653  134.5985  156.4394 C.ar    1  UNL1        0.1500
     28 C         142.1574  133.2288  155.9108 C.ar    1  UNL1        0.0503
     29 C         141.0892  132.7270  154.9850 C.ar    1  UNL1        0.0082
     30 C         141.0293  131.2714  154.6281 C.ar    1  UNL1        0.0716
     31 C         142.0375  130.3176  155.1969 C.ar    1  UNL1        0.0054
     32 C         143.1057  130.8194  156.1227 C.ar    1  UNL1        0.0188
     33 C         143.1657  132.2750  156.4796 C.ar    1  UNL1        0.0807
     34 C         139.9610  130.7695  153.7023 C.3     1  UNL1        0.4186
     35 F         138.8928  130.2676  152.7766 F       1  UNL1       -0.1659
     36 F         139.5684  129.7358  154.7158 F       1  UNL1       -0.1659
     37 F         140.3536  131.8032  152.6888 F       1  UNL1       -0.1659
@<TRIPOS>BOND
     1    24    25    1
     2    25    26   ar
     3    26    27   ar
     4    27    22    1
     5    22    21    1
     6    21     1    1
     7     1     2    2
     8     1     3   am
     9     3     5    1
    10     5     6    1
    11     6     7    1
    12     9     7    1
    13     9    10    1
    14    10    11    1
    15    11    12    1
    16    12    15    1
    17    15    16   ar
    18    16    17   ar
    19    17    18   ar
    20    18    19   ar
    21    19    20   ar
    22    12    13    1
    23    13    14    1
    24     7     8    1
    25    27    28   ar
    26    28    29   ar
    27    29    30   ar
    28    30    34    1
    29    34    35    1
    30    34    36    1
    31    34    37    1
    32    30    31   ar
    33    31    32   ar
    34    32    33   ar
    35    33    25   ar
    36     8     5    1
    37    33    28   ar
    38    14     9    1
    39    20    15   ar
    40    22    23    1
    41     3     4    1
@<TRIPOS>MOLECULE
*****
 37 41 0 0 0
SMALL
GASTEIGER

@<TRIPOS>ATOM
      1 C         142.3342  138.3092  157.9641 C.2     1  UNL1        0.2425
      2 O         143.6555  138.8073  158.4702 O.2     1  UNL1       -0.2733
      3 N         141.1153  138.4006  158.8334 N.am    1  UNL1       -0.3018
      4 H         140.2481  138.0737  158.5013 H       1  UNL1        0.1495
      5 C         141.2177  138.9901  160.2089 C.3     1  UNL1        0.1035
      6 C         141.0506  140.3631  160.7896 C.3     1  UNL1        0.0933
      7 N         141.3624  139.8239  162.1542 N.3     1  UNL1       -0.2711
      8 C         141.5295  138.4510  161.5735 C.3     1  UNL1        0.0933
      9 C         141.4648  140.4134  163.5297 C.3     1  UNL1        0.0576
     10 C         142.7860  140.4361  164.2395 C.3     1  UNL1        0.0163
     11 C         142.8884  141.0255  165.6149 C.3     1  UNL1        0.0057
     12 C         141.6696  141.5925  166.2807 C.3     1  UNL1        0.0224
     13 C         140.3484  141.5699  165.5708 C.3     1  UNL1        0.0057
     14 C         140.2460  140.9804  164.1953 C.3     1  UNL1        0.0163
     15 C         141.7721  142.1820  167.6561 C.ar    1  UNL1       -0.0225
     16 C         143.0521  142.0642  168.4292 C.ar    1  UNL1       -0.0043
     17 C         143.1545  142.6537  169.8047 C.ar    1  UNL1       -0.0003
     18 C         141.9768  143.3610  170.4071 C.ar    1  UNL1       -0.0000
     19 C         140.6968  143.4788  169.6341 C.ar    1  UNL1       -0.0003
     20 C         140.5944  142.8893  168.2586 C.ar    1  UNL1       -0.0043
     21 C         142.2318  137.7197  156.5886 C.3     1  UNL1        0.1747
     22 N         141.0786  136.8261  156.2395 N.pl3   1  UNL1       -0.3093
     23 H         140.1984  136.9734  156.6550 H       1  UNL1        0.1487
     24 C         140.5975  133.7611  151.9669 C.3     1  UNL1        0.1537
     25 N         141.0456  134.2993  153.2934 N.ar    1  UNL1       -0.2476
     26 N         140.5511  135.5552  153.9479 N.ar    1  UNL1       -0.1544
     27 C         141.2667  135.7081  155.2573 C.ar    1  UNL1        0.1500
     28 C         142.2033  134.5467  155.4121 C.ar    1  UNL1        0.0503
     29 C         143.1630  134.1696  156.5015 C.ar    1  UNL1        0.0082
     30 C         143.9860  132.9217  156.3771 C.ar    1  UNL1        0.0716
     31 C         143.8493  132.0510  155.1633 C.ar    1  UNL1        0.0054
     32 C         142.8897  132.4282  154.0739 C.ar    1  UNL1        0.0188
     33 C         142.0667  133.6760  154.1983 C.ar    1  UNL1        0.0807
     34 C         144.9457  132.5445  157.4665 C.3     1  UNL1        0.4186
     35 F         145.9054  132.1673  158.5558 F       1  UNL1       -0.1659
     36 F         145.5890  131.5436  156.5531 F       1  UNL1       -0.1659
     37 F         144.3024  133.5454  158.3798 F       1  UNL1       -0.1659
@<TRIPOS>BOND
     1    24    25    1
     2    25    26   ar
     3    26    27   ar
     4    27    22    1
     5    22    21    1
     6    21     1    1
     7     1     2    2
     8     1     3   am
     9     3     5    1
    10     5     6    1
    11     6     7    1
    12     9     7    1
    13     9    10    1
    14    10    11    1
    15    11    12    1
    16    12    15    1
    17    15    16   ar
    18    16    17   ar
    19    17    18   ar
    20    18    19   ar
    21    19    20   ar
    22    12    13    1
    23    13    14    1
    24     7     8    1
    25    27    28   ar
    26    28    29   ar
    27    29    30   ar
    28    30    34    1
    29    34    35    1
    30    34    36    1
    31    34    37    1
    32    30    31   ar
    33    31    32   ar
    34    32    33   ar
    35    33    25   ar
    36     8     5    1
    37    33    28   ar
    38    14     9    1
    39    20    15   ar
    40    22    23    1
    41     3     4    1
@<TRIPOS>MOLECULE
*****
 37 41 0 0 0
SMALL
GASTEIGER

@<TRIPOS>ATOM
      1 C         138.9695  140.6592  159.6684 C.2     1  UNL1        0.2425
      2 O         138.4827  139.3443  160.2013 O.2     1  UNL1       -0.2733
      3 N         139.9794  140.6917  158.5599 N.am    1  UNL1       -0.3018
      4 H         140.2989  141.5547  158.2102 H       1  UNL1        0.1495
      5 C         140.5025  139.4091  157.9842 C.3     1  UNL1        0.1035
      6 C         141.7940  138.9781  157.3544 C.3     1  UNL1        0.0933
      7 N         141.2425  137.5954  157.1700 N.3     1  UNL1       -0.2711
      8 C         139.9511  138.0265  157.7998 C.3     1  UNL1        0.0933
      9 C         141.7656  136.3128  156.5943 C.3     1  UNL1        0.0576
     10 C         142.9645  135.6503  157.2056 C.3     1  UNL1        0.0163
     11 C         143.4877  134.3679  156.6299 C.3     1  UNL1        0.0057
     12 C         142.8119  133.7477  155.4430 C.3     1  UNL1        0.0224
     13 C         141.6129  134.4102  154.8317 C.3     1  UNL1        0.0057
     14 C         141.0898  135.6928  155.4074 C.3     1  UNL1        0.0163
     15 C         143.3351  132.4652  154.8674 C.ar    1  UNL1       -0.0225
     16 C         144.2467  131.5949  155.6806 C.ar    1  UNL1       -0.0043
     17 C         144.7699  130.3123  155.1049 C.ar    1  UNL1       -0.0003
     18 C         144.3814  129.9002  153.7160 C.ar    1  UNL1       -0.0000
     19 C         143.4698  130.7705  152.9027 C.ar    1  UNL1       -0.0003
     20 C         142.9466  132.0530  153.4784 C.ar    1  UNL1       -0.0043
     21 C         138.4463  141.9418  160.2441 C.3     1  UNL1        0.1747
     22 N         138.0781  142.0169  161.6964 N.pl3   1  UNL1       -0.3093
     23 H         137.1319  141.9857  161.9666 H       1  UNL1        0.1487
     24 C         142.2492  143.7555  164.4277 C.3     1  UNL1        0.1537
     25 N         141.0688  142.9388  163.9923 N.ar    1  UNL1       -0.2476
     26 N         140.2119  143.1993  162.7890 N.ar    1  UNL1       -0.1544
     27 C         139.1516  142.1396  162.7369 C.ar    1  UNL1        0.1500
     28 C         139.3531  141.2242  163.9079 C.ar    1  UNL1        0.0503
     29 C         138.6107  140.0047  164.3680 C.ar    1  UNL1        0.0082
     30 C         139.0533  139.2791  165.6039 C.ar    1  UNL1        0.0716
     31 C         140.2382  139.7730  166.3798 C.ar    1  UNL1        0.0054
     32 C         140.9806  140.9925  165.9198 C.ar    1  UNL1        0.0188
     33 C         140.5380  141.7181  164.6839 C.ar    1  UNL1        0.0807
     34 C         138.3109  138.0595  166.0640 C.3     1  UNL1        0.4186
     35 F         137.5686  136.8400  166.5241 F       1  UNL1       -0.1659
     36 F         137.3905  138.9249  166.8726 F       1  UNL1       -0.1659
     37 F         139.2314  137.1941  165.2555 F       1  UNL1       -0.1659
@<TRIPOS>BOND
     1    24    25    1
     2    25    26   ar
     3    26    27   ar
     4    27    22    1
     5    22    21    1
     6    21     1    1
     7     1     2    2
     8     1     3   am
     9     3     5    1
    10     5     6    1
    11     6     7    1
    12     9     7    1
    13     9    10    1
    14    10    11    1
    15    11    12    1
    16    12    15    1
    17    15    16   ar
    18    16    17   ar
    19    17    18   ar
    20    18    19   ar
    21    19    20   ar
    22    12    13    1
    23    13    14    1
    24     7     8    1
    25    27    28   ar
    26    28    29   ar
    27    29    30   ar
    28    30    34    1
    29    34    35    1
    30    34    36    1
    31    34    37    1
    32    30    31   ar
    33    31    32   ar
    34    32    33   ar
    35    33    25   ar
    36     8     5    1
    37    33    28   ar
    38    14     9    1
    39    20    15   ar
    40    22    23    1
    41     3     4    1
@<TRIPOS>MOLECULE
*****
 37 41 0 0 0
SMALL
GASTEIGER

@<TRIPOS>ATOM
      1 C         142.4473  142.1489  163.2491 C.2     1  UNL1        0.2425
      2 O         143.5368  141.1180  163.2395 O.2     1  UNL1       -0.2733
      3 N         141.3891  142.1319  162.1862 N.am    1  UNL1       -0.3018
      4 H         140.6740  142.8085  162.1925 H       1  UNL1        0.1495
      5 C         141.4205  141.0838  161.1135 C.3     1  UNL1        0.1035
      6 C         141.8459  141.0503  159.6754 C.3     1  UNL1        0.0933
      7 N         141.4649  139.6017  159.5965 N.3     1  UNL1       -0.2711
      8 C         141.0395  139.6352  161.0345 C.3     1  UNL1        0.0933
      9 C         141.4962  138.5536  158.5238 C.3     1  UNL1        0.0576
     10 C         142.7187  137.7038  158.3411 C.3     1  UNL1        0.0163
     11 C         142.7501  136.6558  157.2686 C.3     1  UNL1        0.0057
     12 C         141.5590  136.4575  156.3785 C.3     1  UNL1        0.0224
     13 C         140.3365  137.3073  156.5612 C.3     1  UNL1        0.0057
     14 C         140.3052  138.3554  157.6339 C.3     1  UNL1        0.0163
     15 C         141.5905  135.4094  155.3060 C.ar    1  UNL1       -0.0225
     16 C         141.8930  133.9834  155.6593 C.ar    1  UNL1       -0.0043
     17 C         141.9244  132.9354  154.5866 C.ar    1  UNL1       -0.0003
     18 C         141.6534  133.3134  153.1605 C.ar    1  UNL1       -0.0000
     19 C         141.3508  134.7394  152.8071 C.ar    1  UNL1       -0.0003
     20 C         141.3194  135.7874  153.8798 C.ar    1  UNL1       -0.0043
     21 C         142.4159  143.1970  164.3218 C.3     1  UNL1        0.1747
     22 N         141.1322  143.5015  165.0356 N.pl3   1  UNL1       -0.3093
     23 H         140.6250  144.3149  164.8111 H       1  UNL1        0.1487
     24 C         139.9673  141.3819  169.7294 C.3     1  UNL1        0.1537
     25 N         140.0858  141.5923  168.2489 N.ar    1  UNL1       -0.2476
     26 N         140.7268  142.7685  167.5740 N.ar    1  UNL1       -0.1544
     27 C         140.6212  142.5665  166.0915 C.ar    1  UNL1        0.1500
     28 C         139.9148  141.2655  165.8501 C.ar    1  UNL1        0.0503
     29 C         139.5301  140.5513  164.5884 C.ar    1  UNL1        0.0082
     30 C         138.8145  139.2350  164.6601 C.ar    1  UNL1        0.0716
     31 C         138.4836  138.6328  165.9935 C.ar    1  UNL1        0.0054
     32 C         138.8683  139.3470  167.2552 C.ar    1  UNL1        0.0188
     33 C         139.5839  140.6634  167.1835 C.ar    1  UNL1        0.0807
     34 C         138.4298  138.5207  163.3984 C.3     1  UNL1        0.4186
     35 F         138.0452  137.8064  162.1367 F       1  UNL1       -0.1659
     36 F         139.0030  137.2468  163.9448 F       1  UNL1       -0.1659
     37 F         137.8567  139.7945  162.8519 F       1  UNL1       -0.1659
@<TRIPOS>BOND
     1    24    25    1
     2    25    26   ar
     3    26    27   ar
     4    27    22    1
     5    22    21    1
     6    21     1    1
     7     1     2    2
     8     1     3   am
     9     3     5    1
    10     5     6    1
    11     6     7    1
    12     9     7    1
    13     9    10    1
    14    10    11    1
    15    11    12    1
    16    12    15    1
    17    15    16   ar
    18    16    17   ar
    19    17    18   ar
    20    18    19   ar
    21    19    20   ar
    22    12    13    1
    23    13    14    1
    24     7     8    1
    25    27    28   ar
    26    28    29   ar
    27    29    30   ar
    28    30    34    1
    29    34    35    1
    30    34    36    1
    31    34    37    1
    32    30    31   ar
    33    31    32   ar
    34    32    33   ar
    35    33    25   ar
    36     8     5    1
    37    33    28   ar
    38    14     9    1
    39    20    15   ar
    40    22    23    1
    41     3     4    1
@<TRIPOS>MOLECULE
*****
 37 41 0 0 0
SMALL
GASTEIGER

@<TRIPOS>ATOM
      1 C         138.6690  139.9834  157.1664 C.2     1  UNL1        0.2425
      2 O         138.3426  141.3754  157.6200 O.2     1  UNL1       -0.2733
      3 N         139.1223  138.9570  158.1618 N.am    1  UNL1       -0.3018
      4 H         139.3365  138.0434  157.8640 H       1  UNL1        0.1495
      5 C         139.2491  139.3226  159.6110 C.3     1  UNL1        0.1035
      6 C         138.4517  139.0403  160.8499 C.3     1  UNL1        0.0933
      7 N         139.4284  139.8396  161.6606 N.3     1  UNL1       -0.2711
      8 C         140.2257  140.1219  160.4218 C.3     1  UNL1        0.0933
      9 C         139.5552  140.2052  163.1098 C.3     1  UNL1        0.0576
     10 C         140.3458  139.3309  164.0375 C.3     1  UNL1        0.0163
     11 C         140.4726  139.6965  165.4866 C.3     1  UNL1        0.0057
     12 C         139.8089  140.9365  166.0083 C.3     1  UNL1        0.0224
     13 C         139.0184  141.8108  165.0806 C.3     1  UNL1        0.0057
     14 C         138.8915  141.4452  163.6314 C.3     1  UNL1        0.0163
     15 C         139.9358  141.3020  167.4575 C.ar    1  UNL1       -0.0225
     16 C         140.3976  142.6749  167.8471 C.ar    1  UNL1       -0.0043
     17 C         140.5245  143.0403  169.2964 C.ar    1  UNL1       -0.0003
     18 C         140.1895  142.0328  170.3560 C.ar    1  UNL1       -0.0000
     19 C         139.7277  140.6599  169.9664 C.ar    1  UNL1       -0.0003
     20 C         139.6008  140.2945  168.5171 C.ar    1  UNL1       -0.0043
     21 C         138.5422  139.6178  155.7171 C.3     1  UNL1        0.1747
     22 N         137.2475  139.0718  155.1919 N.pl3   1  UNL1       -0.3093
     23 H         137.0819  138.1014  155.2029 H       1  UNL1        0.1487
     24 C         134.8305  142.7584  152.2854 C.3     1  UNL1        0.1537
     25 N         135.0942  141.6989  153.3140 N.ar    1  UNL1       -0.2476
     26 N         136.3903  140.9724  153.5191 N.ar    1  UNL1       -0.1544
     27 C         136.2051  140.0044  154.6499 C.ar    1  UNL1        0.1500
     28 C         134.7945  140.1326  155.1436 C.ar    1  UNL1        0.0503
     29 C         134.0465  139.4311  156.2382 C.ar    1  UNL1        0.0082
     30 C         132.6119  139.7768  156.5072 C.ar    1  UNL1        0.0716
     31 C         131.9253  140.8241  155.6816 C.ar    1  UNL1        0.0054
     32 C         132.6733  141.5257  154.5869 C.ar    1  UNL1        0.0188
     33 C         134.1079  141.1799  154.3179 C.ar    1  UNL1        0.0807
     34 C         131.8639  139.0752  157.6019 C.3     1  UNL1        0.4186
     35 F         131.1159  138.3737  158.6966 F       1  UNL1       -0.1659
     36 F         130.8139  140.1460  157.5706 F       1  UNL1       -0.1659
     37 F         132.9139  138.0045  157.6333 F       1  UNL1       -0.1659
@<TRIPOS>BOND
     1    24    25    1
     2    25    26   ar
     3    26    27   ar
     4    27    22    1
     5    22    21    1
     6    21     1    1
     7     1     2    2
     8     1     3   am
     9     3     5    1
    10     5     6    1
    11     6     7    1
    12     9     7    1
    13     9    10    1
    14    10    11    1
    15    11    12    1
    16    12    15    1
    17    15    16   ar
    18    16    17   ar
    19    17    18   ar
    20    18    19   ar
    21    19    20   ar
    22    12    13    1
    23    13    14    1
    24     7     8    1
    25    27    28   ar
    26    28    29   ar
    27    29    30   ar
    28    30    34    1
    29    34    35    1
    30    34    36    1
    31    34    37    1
    32    30    31   ar
    33    31    32   ar
    34    32    33   ar
    35    33    25   ar
    36     8     5    1
    37    33    28   ar
    38    14     9    1
    39    20    15   ar
    40    22    23    1
    41     3     4    1
@<TRIPOS>MOLECULE
*****
 37 41 0 0 0
SMALL
GASTEIGER

@<TRIPOS>ATOM
      1 C         144.3911  140.1833  163.9992 C.2     1  UNL1        0.2425
      2 O         143.6461  141.3899  164.4881 O.2     1  UNL1       -0.2733
      3 N         144.5391  139.9388  162.5267 N.am    1  UNL1       -0.3018
      4 H         145.0281  139.1469  162.2059 H       1  UNL1        0.1495
      5 C         143.9419  140.9010  161.5431 C.3     1  UNL1        0.1035
      6 C         142.6868  140.9364  160.7222 C.3     1  UNL1        0.0933
      7 N         143.0973  142.2617  160.1519 N.3     1  UNL1       -0.2711
      8 C         144.3523  142.2262  160.9727 C.3     1  UNL1        0.0933
      9 C         142.5001  143.2238  159.1682 C.3     1  UNL1        0.0576
     10 C         141.6177  144.3373  159.6493 C.3     1  UNL1        0.0163
     11 C         141.0206  145.2994  158.6657 C.3     1  UNL1        0.0057
     12 C         141.3058  145.1482  157.2008 C.3     1  UNL1        0.0224
     13 C         142.1882  144.0347  156.7197 C.3     1  UNL1        0.0057
     14 C         142.7854  143.0725  157.7034 C.3     1  UNL1        0.0163
     15 C         140.7086  146.1104  156.2173 C.ar    1  UNL1       -0.0225
     16 C         139.5706  146.9959  156.6306 C.ar    1  UNL1       -0.0043
     17 C         138.9735  147.9581  155.6469 C.ar    1  UNL1       -0.0003
     18 C         139.5143  148.0347  154.2499 C.ar    1  UNL1       -0.0000
     19 C         140.6523  147.1493  153.8365 C.ar    1  UNL1       -0.0003
     20 C         141.2494  146.1871  154.8202 C.ar    1  UNL1       -0.0043
     21 C         144.9883  139.2212  164.9829 C.3     1  UNL1        0.1747
     22 N         144.0959  138.3449  165.8113 N.pl3   1  UNL1       -0.3093
     23 H         144.2889  137.3830  165.8931 H       1  UNL1        0.1487
     24 C         141.0745  140.7227  169.4304 C.3     1  UNL1        0.1537
     25 N         141.5209  140.0273  168.1785 N.ar    1  UNL1       -0.2476
     26 N         142.9191  139.5816  167.8682 N.ar    1  UNL1       -0.1544
     27 C         142.9096  138.9344  166.5150 C.ar    1  UNL1        0.1500
     28 C         141.5056  138.9801  165.9890 C.ar    1  UNL1        0.0503
     29 C         140.8978  138.4940  164.7068 C.ar    1  UNL1        0.0082
     30 C         139.4317  138.6833  164.4527 C.ar    1  UNL1        0.0716
     31 C         138.5734  139.3588  165.4808 C.ar    1  UNL1        0.0054
     32 C         139.1812  139.8449  166.7630 C.ar    1  UNL1        0.0188
     33 C         140.6473  139.6556  167.0172 C.ar    1  UNL1        0.0807
     34 C         138.8238  138.1971  163.1704 C.3     1  UNL1        0.4186
     35 F         138.2160  137.7110  161.8881 F       1  UNL1       -0.1659
     36 F         137.7626  139.2521  163.2735 F       1  UNL1       -0.1659
     37 F         139.8851  137.1421  163.0672 F       1  UNL1       -0.1659
@<TRIPOS>BOND
     1    24    25    1
     2    25    26   ar
     3    26    27   ar
     4    27    22    1
     5    22    21    1
     6    21     1    1
     7     1     2    2
     8     1     3   am
     9     3     5    1
    10     5     6    1
    11     6     7    1
    12     9     7    1
    13     9    10    1
    14    10    11    1
    15    11    12    1
    16    12    15    1
    17    15    16   ar
    18    16    17   ar
    19    17    18   ar
    20    18    19   ar
    21    19    20   ar
    22    12    13    1
    23    13    14    1
    24     7     8    1
    25    27    28   ar
    26    28    29   ar
    27    29    30   ar
    28    30    34    1
    29    34    35    1
    30    34    36    1
    31    34    37    1
    32    30    31   ar
    33    31    32   ar
    34    32    33   ar
    35    33    25   ar
    36     8     5    1
    37    33    28   ar
    38    14     9    1
    39    20    15   ar
    40    22    23    1
    41     3     4    1
@<TRIPOS>MOLECULE
*****
 37 41 0 0 0
SMALL
GASTEIGER

@<TRIPOS>ATOM
      1 C         139.2634  142.1002  158.7490 C.2     1  UNL1        0.2425
      2 O         138.4558  143.0943  159.5296 O.2     1  UNL1       -0.2733
      3 N         139.9201  142.5107  157.4644 N.am    1  UNL1       -0.3018
      4 H         140.4501  141.8582  156.9520 H       1  UNL1        0.1495
      5 C         139.7691  143.9154  156.9604 C.3     1  UNL1        0.1035
      6 C         140.4646  145.2178  157.2254 C.3     1  UNL1        0.0933
      7 N         139.5557  145.9021  156.2478 N.3     1  UNL1       -0.2711
      8 C         138.8603  144.5997  155.9829 C.3     1  UNL1        0.0933
      9 C         139.4047  147.3068  155.7439 C.3     1  UNL1        0.0576
     10 C         138.6960  148.3312  156.5795 C.3     1  UNL1        0.0163
     11 C         138.5450  149.7359  156.0756 C.3     1  UNL1        0.0057
     12 C         139.1028  150.1162  154.7360 C.3     1  UNL1        0.0224
     13 C         139.8115  149.0918  153.9004 C.3     1  UNL1        0.0057
     14 C         139.9625  147.6871  154.4044 C.3     1  UNL1        0.0163
     15 C         138.9518  151.5210  154.2322 C.ar    1  UNL1       -0.0225
     16 C         139.2547  151.8402  152.7982 C.ar    1  UNL1       -0.0043
     17 C         139.1036  153.2450  152.2945 C.ar    1  UNL1       -0.0003
     18 C         138.6496  154.3306  153.2248 C.ar    1  UNL1       -0.0000
     19 C         138.3467  154.0114  154.6587 C.ar    1  UNL1       -0.0003
     20 C         138.4978  152.6066  155.1624 C.ar    1  UNL1       -0.0043
     21 C         139.4144  140.6954  159.2529 C.3     1  UNL1        0.1747
     22 N         140.0091  140.4442  160.6070 N.pl3   1  UNL1       -0.3093
     23 H         139.7377  139.6520  161.1245 H       1  UNL1        0.1487
     24 C         144.5385  142.9888  161.5506 C.3     1  UNL1        0.1537
     25 N         143.0993  142.5697  161.6061 N.ar    1  UNL1       -0.2476
     26 N         142.4682  141.4744  160.7987 N.ar    1  UNL1       -0.1544
     27 C         141.0174  141.4001  161.1723 C.ar    1  UNL1        0.1500
     28 C         140.7518  142.4496  162.2106 C.ar    1  UNL1        0.0503
     29 C         139.5046  142.8404  162.9466 C.ar    1  UNL1        0.0082
     30 C         139.5441  143.9541  163.9506 C.ar    1  UNL1        0.0716
     31 C         140.8308  144.6770  164.2187 C.ar    1  UNL1        0.0054
     32 C         142.0780  144.2862  163.4827 C.ar    1  UNL1        0.0188
     33 C         142.0385  143.1725  162.4787 C.ar    1  UNL1        0.0807
     34 C         138.2968  144.3449  164.6867 C.3     1  UNL1        0.4186
     35 F         137.0496  144.7358  165.4226 F       1  UNL1       -0.1659
     36 F         137.5062  144.2085  163.4193 F       1  UNL1       -0.1659
     37 F         139.0875  144.4814  165.9540 F       1  UNL1       -0.1659
@<TRIPOS>BOND
     1    24    25    1
     2    25    26   ar
     3    26    27   ar
     4    27    22    1
     5    22    21    1
     6    21     1    1
     7     1     2    2
     8     1     3   am
     9     3     5    1
    10     5     6    1
    11     6     7    1
    12     9     7    1
    13     9    10    1
    14    10    11    1
    15    11    12    1
    16    12    15    1
    17    15    16   ar
    18    16    17   ar
    19    17    18   ar
    20    18    19   ar
    21    19    20   ar
    22    12    13    1
    23    13    14    1
    24     7     8    1
    25    27    28   ar
    26    28    29   ar
    27    29    30   ar
    28    30    34    1
    29    34    35    1
    30    34    36    1
    31    34    37    1
    32    30    31   ar
    33    31    32   ar
    34    32    33   ar
    35    33    25   ar
    36     8     5    1
    37    33    28   ar
    38    14     9    1
    39    20    15   ar
    40    22    23    1
    41     3     4    1
