@<TRIPOS>MOLECULE
*****
 22 24 0 0 0
SMALL
GASTEIGER

@<TRIPOS>ATOM
      1 C         139.5644  141.1743  165.7311 C.ar    1  UNL1       -0.0158
      2 C         138.6639  140.0948  165.2081 C.ar    1  UNL1        0.0050
      3 S         137.8340  140.6783  164.1032 S.2     1  UNL1       -0.0915
      4 C         138.2216  142.1185  163.9434 C.ar    1  UNL1        0.0288
      5 C         137.7390  143.1904  163.0117 C.ar    1  UNL1        0.0065
      6 C         138.3258  144.5688  163.0861 C.ar    1  UNL1        0.0005
      7 C         139.3953  144.8754  164.0922 C.ar    1  UNL1        0.0000
      8 C         139.8780  143.8035  165.0239 C.ar    1  UNL1        0.0002
      9 C         139.2911  142.4251  164.9495 C.ar    1  UNL1        0.0025
     10 C         141.8453  140.2874  166.6035 C.3     1  UNL1        0.0095
     11 C         140.5630  141.0287  166.8409 C.3     1  UNL1        0.0463
     12 C         140.2794  141.6243  168.1879 C.ar    1  UNL1        0.0007
     13 C         140.6729  143.0423  168.4790 C.ar    1  UNL1       -0.0008
     14 C         140.3894  143.6380  169.8261 C.ar    1  UNL1        0.0204
     15 C         139.7123  142.8157  170.8822 C.ar    1  UNL1        0.0989
     16 N         139.3188  141.3978  170.5912 N.ar    1  UNL1       -0.2426
     17 C         139.6024  140.8021  169.2441 C.ar    1  UNL1        0.0949
     18 C         138.6038  138.6800  165.7030 C.3     1  UNL1        0.0499
     19 C         138.8452  137.5429  164.7551 C.3     1  UNL1        0.0774
     20 N         140.0407  137.5626  163.8492 N.3     1  UNL1       -0.2700
     21 C         141.4097  137.3114  164.4085 C.3     1  UNL1        0.0897
     22 C         139.8671  137.8335  162.3841 C.3     1  UNL1        0.0897
@<TRIPOS>BOND
     1    11    10    1
     2    11    12    1
     3    12    13   ar
     4    13    14   ar
     5    14    15   ar
     6    15    16   ar
     7    16    17   ar
     8    11     1    1
     9     1     2   ar
    10     2    18    1
    11    18    19    1
    12    19    20    1
    13    20    21    1
    14    20    22    1
    15     2     3   ar
    16     3     4   ar
    17     4     5   ar
    18     5     6   ar
    19     6     7   ar
    20     7     8   ar
    21     8     9   ar
    22    17    12   ar
    23     9     1   ar
    24     9     4   ar
@<TRIPOS>MOLECULE
*****
 22 24 0 0 0
SMALL
GASTEIGER

@<TRIPOS>ATOM
      1 C         139.8201  140.4409  165.4741 C.ar    1  UNL1       -0.0158
      2 C         138.9429  139.5873  164.6069 C.ar    1  UNL1        0.0050
      3 S         138.0045  140.4917  163.8642 S.2     1  UNL1       -0.0915
      4 C         138.3018  141.9042  164.2724 C.ar    1  UNL1        0.0288
      5 C         137.6957  143.2149  163.8666 C.ar    1  UNL1        0.0065
      6 C         138.2117  144.4942  164.4558 C.ar    1  UNL1        0.0005
      7 C         139.3338  144.4627  165.4507 C.ar    1  UNL1        0.0000
      8 C         139.9399  143.1520  165.8565 C.ar    1  UNL1        0.0002
      9 C         139.4239  141.8728  165.2673 C.ar    1  UNL1        0.0025
     10 C         142.1715  139.3895  165.8141 C.3     1  UNL1        0.0095
     11 C         140.9033  139.9489  166.3877 C.3     1  UNL1        0.0463
     12 C         140.7185  140.0163  167.8746 C.ar    1  UNL1        0.0007
     13 C         139.3536  140.2513  168.4509 C.ar    1  UNL1       -0.0008
     14 C         139.1687  140.3187  169.9379 C.ar    1  UNL1        0.0204
     15 C         140.3487  140.1511  170.8487 C.ar    1  UNL1        0.0989
     16 N         141.7135  139.9162  170.2725 N.ar    1  UNL1       -0.2426
     17 C         141.8984  139.8488  168.7855 C.ar    1  UNL1        0.0949
     18 C         138.9949  138.0920  164.5011 C.3     1  UNL1        0.0499
     19 C         138.9295  137.4327  163.1554 C.3     1  UNL1        0.0774
     20 N         139.9487  137.7660  162.1065 N.3     1  UNL1       -0.2700
     21 C         141.4113  137.6388  162.4147 C.3     1  UNL1        0.0897
     22 C         139.5055  138.2265  160.7495 C.3     1  UNL1        0.0897
@<TRIPOS>BOND
     1    11    10    1
     2    11    12    1
     3    12    13   ar
     4    13    14   ar
     5    14    15   ar
     6    15    16   ar
     7    16    17   ar
     8    11     1    1
     9     1     2   ar
    10     2    18    1
    11    18    19    1
    12    19    20    1
    13    20    21    1
    14    20    22    1
    15     2     3   ar
    16     3     4   ar
    17     4     5   ar
    18     5     6   ar
    19     6     7   ar
    20     7     8   ar
    21     8     9   ar
    22    17    12   ar
    23     9     1   ar
    24     9     4   ar
@<TRIPOS>MOLECULE
*****
 22 24 0 0 0
SMALL
GASTEIGER

@<TRIPOS>ATOM
      1 C         141.2497  142.9312  165.4502 C.ar    1  UNL1       -0.0158
      2 C         140.3380  143.9615  164.8524 C.ar    1  UNL1        0.0050
      3 S         141.0324  144.5626  163.6665 S.2     1  UNL1       -0.0915
      4 C         142.3732  143.9038  163.5312 C.ar    1  UNL1        0.0288
      5 C         143.4891  144.0918  162.5467 C.ar    1  UNL1        0.0065
      6 C         144.7394  143.2715  162.6646 C.ar    1  UNL1        0.0005
      7 C         144.8737  142.2632  163.7670 C.ar    1  UNL1        0.0000
      8 C         143.7577  142.0752  164.7515 C.ar    1  UNL1        0.0002
      9 C         142.5075  142.8955  164.6337 C.ar    1  UNL1        0.0025
     10 C         140.0522  140.8937  166.5295 C.3     1  UNL1        0.0095
     11 C         140.9553  142.0850  166.6532 C.3     1  UNL1        0.0463
     12 C         141.5639  142.4301  167.9800 C.ar    1  UNL1        0.0007
     13 C         142.9782  142.0324  168.2826 C.ar    1  UNL1       -0.0008
     14 C         143.5869  142.3774  169.6094 C.ar    1  UNL1        0.0204
     15 C         142.7812  143.1202  170.6337 C.ar    1  UNL1        0.0989
     16 N         141.3669  143.5179  170.3312 N.ar    1  UNL1       -0.2426
     17 C         140.7582  143.1728  169.0044 C.ar    1  UNL1        0.0949
     18 C         138.9719  144.3266  165.3528 C.3     1  UNL1        0.0499
     19 C         137.7619  144.0200  164.5211 C.3     1  UNL1        0.0774
     20 N         137.7957  142.8893  163.5360 N.3     1  UNL1       -0.2700
     21 C         137.9327  143.1756  162.0699 C.3     1  UNL1        0.0897
     22 C         137.6925  141.4722  164.0170 C.3     1  UNL1        0.0897
@<TRIPOS>BOND
     1    11    10    1
     2    11    12    1
     3    12    13   ar
     4    13    14   ar
     5    14    15   ar
     6    15    16   ar
     7    16    17   ar
     8    11     1    1
     9     1     2   ar
    10     2    18    1
    11    18    19    1
    12    19    20    1
    13    20    21    1
    14    20    22    1
    15     2     3   ar
    16     3     4   ar
    17     4     5   ar
    18     5     6   ar
    19     6     7   ar
    20     7     8   ar
    21     8     9   ar
    22    17    12   ar
    23     9     1   ar
    24     9     4   ar
@<TRIPOS>MOLECULE
*****
 22 24 0 0 0
SMALL
GASTEIGER

@<TRIPOS>ATOM
      1 C         141.5761  141.4382  165.2910 C.ar    1  UNL1       -0.0158
      2 C         141.1432  142.8591  165.0821 C.ar    1  UNL1        0.0050
      3 S         142.2708  143.5947  164.4207 S.2     1  UNL1       -0.0915
      4 C         143.4005  142.6284  164.2208 C.ar    1  UNL1        0.0288
      5 C         144.7647  142.7899  163.6185 C.ar    1  UNL1        0.0065
      6 C         145.6995  141.6187  163.5540 C.ar    1  UNL1        0.0005
      7 C         145.2702  140.2859  164.0919 C.ar    1  UNL1        0.0000
      8 C         143.9060  140.1244  164.6943 C.ar    1  UNL1        0.0002
      9 C         142.9712  141.2956  164.7587 C.ar    1  UNL1        0.0025
     10 C         139.8416  139.5157  165.0766 C.3     1  UNL1        0.0095
     11 C         140.7576  140.3508  165.9215 C.3     1  UNL1        0.0463
     12 C         140.8549  140.0983  167.3969 C.ar    1  UNL1        0.0007
     13 C         142.1809  139.7675  168.0153 C.ar    1  UNL1       -0.0008
     14 C         142.2784  139.5150  169.4907 C.ar    1  UNL1        0.0204
     15 C         141.0498  139.5934  170.3477 C.ar    1  UNL1        0.0989
     16 N         139.7238  139.9242  169.7293 N.ar    1  UNL1       -0.2426
     17 C         139.6264  140.1767  168.2539 C.ar    1  UNL1        0.0949
     18 C         139.8158  143.4421  165.4671 C.3     1  UNL1        0.0499
     19 C         139.3229  144.6911  164.7986 C.3     1  UNL1        0.0774
     20 N         138.8806  144.6504  163.3658 N.3     1  UNL1       -0.2700
     21 C         137.7563  143.7472  162.9534 C.3     1  UNL1        0.0897
     22 C         139.5626  145.5129  162.3456 C.3     1  UNL1        0.0897
@<TRIPOS>BOND
     1    11    10    1
     2    11    12    1
     3    12    13   ar
     4    13    14   ar
     5    14    15   ar
     6    15    16   ar
     7    16    17   ar
     8    11     1    1
     9     1     2   ar
    10     2    18    1
    11    18    19    1
    12    19    20    1
    13    20    21    1
    14    20    22    1
    15     2     3   ar
    16     3     4   ar
    17     4     5   ar
    18     5     6   ar
    19     6     7   ar
    20     7     8   ar
    21     8     9   ar
    22    17    12   ar
    23     9     1   ar
    24     9     4   ar
@<TRIPOS>MOLECULE
*****
 22 24 0 0 0
SMALL
GASTEIGER

@<TRIPOS>ATOM
      1 C         140.1430  140.3833  165.7054 C.ar    1  UNL1       -0.0158
      2 C         139.6029  141.1718  164.5493 C.ar    1  UNL1        0.0050
      3 S         140.6496  141.1955  163.4751 S.2     1  UNL1       -0.0915
      4 C         141.8366  140.4216  163.9673 C.ar    1  UNL1        0.0288
      5 C         143.1620  140.1092  163.3384 C.ar    1  UNL1        0.0065
      6 C         144.1744  139.2949  164.0879 C.ar    1  UNL1        0.0005
      7 C         143.8613  138.7929  165.4663 C.ar    1  UNL1        0.0000
      8 C         142.5359  139.1053  166.0952 C.ar    1  UNL1        0.0002
      9 C         141.5235  139.9197  165.3457 C.ar    1  UNL1        0.0025
     10 C         138.3799  139.0358  167.0566 C.3     1  UNL1        0.0095
     11 C         139.4282  140.1069  166.9948 C.3     1  UNL1        0.0463
     12 C         139.7616  140.9016  168.2225 C.ar    1  UNL1        0.0007
     13 C         140.4586  142.2237  168.0938 C.ar    1  UNL1       -0.0008
     14 C         140.7920  143.0184  169.3215 C.ar    1  UNL1        0.0204
     15 C         140.4285  142.4910  170.6779 C.ar    1  UNL1        0.0989
     16 N         139.7316  141.1690  170.8066 N.ar    1  UNL1       -0.2426
     17 C         139.3982  140.3743  169.5789 C.ar    1  UNL1        0.0949
     18 C         138.2531  141.8223  164.4797 C.3     1  UNL1        0.0499
     19 C         138.0356  143.0041  163.5819 C.3     1  UNL1        0.0774
     20 N         138.6725  144.3221  163.9093 N.3     1  UNL1       -0.2700
     21 C         138.6516  144.8357  165.3186 C.3     1  UNL1        0.0897
     22 C         139.3304  145.1265  162.8276 C.3     1  UNL1        0.0897
@<TRIPOS>BOND
     1    11    10    1
     2    11    12    1
     3    12    13   ar
     4    13    14   ar
     5    14    15   ar
     6    15    16   ar
     7    16    17   ar
     8    11     1    1
     9     1     2   ar
    10     2    18    1
    11    18    19    1
    12    19    20    1
    13    20    21    1
    14    20    22    1
    15     2     3   ar
    16     3     4   ar
    17     4     5   ar
    18     5     6   ar
    19     6     7   ar
    20     7     8   ar
    21     8     9   ar
    22    17    12   ar
    23     9     1   ar
    24     9     4   ar
@<TRIPOS>MOLECULE
*****
 22 24 0 0 0
SMALL
GASTEIGER

@<TRIPOS>ATOM
      1 C         142.2071  140.3076  165.6582 C.ar    1  UNL1       -0.0158
      2 C         143.1102  139.3853  164.8941 C.ar    1  UNL1        0.0050
      3 S         142.3171  138.1703  164.5135 S.2     1  UNL1       -0.0915
      4 C         140.9239  138.3417  165.0424 C.ar    1  UNL1        0.0288
      5 C         139.7085  137.4656  164.9712 C.ar    1  UNL1        0.0065
      6 C         138.4251  137.9104  165.6075 C.ar    1  UNL1        0.0005
      7 C         138.3571  139.2314  166.3150 C.ar    1  UNL1        0.0000
      8 C         139.5726  140.1075  166.3862 C.ar    1  UNL1        0.0002
      9 C         140.8560  139.6626  165.7499 C.ar    1  UNL1        0.0025
     10 C         142.9980  141.7501  167.6692 C.3     1  UNL1        0.0095
     11 C         142.5883  141.6408  166.2303 C.3     1  UNL1        0.0463
     12 C         142.5598  142.8647  165.3636 C.ar    1  UNL1        0.0007
     13 C         143.8403  143.5565  165.0003 C.ar    1  UNL1       -0.0008
     14 C         143.8118  144.7804  164.1336 C.ar    1  UNL1        0.0204
     15 C         142.5028  145.3126  163.6302 C.ar    1  UNL1        0.0989
     16 N         141.2224  144.6209  163.9935 N.ar    1  UNL1       -0.2426
     17 C         141.2509  143.3970  164.8602 C.ar    1  UNL1        0.0949
     18 C         144.5529  139.6343  164.5678 C.3     1  UNL1        0.0499
     19 C         144.9189  140.4932  163.3938 C.3     1  UNL1        0.0774
     20 N         144.0579  140.4912  162.1656 N.3     1  UNL1       -0.2700
     21 C         143.1766  141.6674  161.8655 C.3     1  UNL1        0.0897
     22 C         144.0780  139.3130  161.2374 C.3     1  UNL1        0.0897
@<TRIPOS>BOND
     1    11    10    1
     2    11    12    1
     3    12    13   ar
     4    13    14   ar
     5    14    15   ar
     6    15    16   ar
     7    16    17   ar
     8    11     1    1
     9     1     2   ar
    10     2    18    1
    11    18    19    1
    12    19    20    1
    13    20    21    1
    14    20    22    1
    15     2     3   ar
    16     3     4   ar
    17     4     5   ar
    18     5     6   ar
    19     6     7   ar
    20     7     8   ar
    21     8     9   ar
    22    17    12   ar
    23     9     1   ar
    24     9     4   ar
@<TRIPOS>MOLECULE
*****
 22 24 0 0 0
SMALL
GASTEIGER

@<TRIPOS>ATOM
      1 C         140.3455  140.5048  165.5954 C.ar    1  UNL1       -0.0158
      2 C         141.4530  139.8060  164.8640 C.ar    1  UNL1        0.0050
      3 S         142.1027  140.7999  163.9475 S.2     1  UNL1       -0.0915
      4 C         141.3967  142.1131  164.1125 C.ar    1  UNL1        0.0288
      5 C         141.6024  143.4513  163.4669 C.ar    1  UNL1        0.0065
      6 C         140.7222  144.6071  163.8398 C.ar    1  UNL1        0.0005
      7 C         139.6361  144.4247  164.8583 C.ar    1  UNL1        0.0000
      8 C         139.4304  143.0865  165.5039 C.ar    1  UNL1        0.0002
      9 C         140.3107  141.9307  165.1310 C.ar    1  UNL1        0.0025
     10 C         138.1791  139.1912  166.1714 C.3     1  UNL1        0.0095
     11 C         139.4330  139.8865  166.6127 C.3     1  UNL1        0.0463
     12 C         139.7741  139.9632  168.0713 C.ar    1  UNL1        0.0007
     13 C         141.2060  140.0861  168.5013 C.ar    1  UNL1       -0.0008
     14 C         141.5472  140.1628  169.9599 C.ar    1  UNL1        0.0204
     15 C         140.4565  140.1167  170.9887 C.ar    1  UNL1        0.0989
     16 N         139.0248  139.9938  170.5588 N.ar    1  UNL1       -0.2426
     17 C         138.6835  139.9171  169.1002 C.ar    1  UNL1        0.0949
     18 C         141.8425  138.3660  165.0215 C.3     1  UNL1        0.0499
     19 C         141.1039  137.3022  164.2647 C.3     1  UNL1        0.0774
     20 N         140.4870  137.6192  162.9346 N.3     1  UNL1       -0.2700
     21 C         141.3592  137.8031  161.7281 C.3     1  UNL1        0.0897
     22 C         138.9981  137.7522  162.8110 C.3     1  UNL1        0.0897
@<TRIPOS>BOND
     1    11    10    1
     2    11    12    1
     3    12    13   ar
     4    13    14   ar
     5    14    15   ar
     6    15    16   ar
     7    16    17   ar
     8    11     1    1
     9     1     2   ar
    10     2    18    1
    11    18    19    1
    12    19    20    1
    13    20    21    1
    14    20    22    1
    15     2     3   ar
    16     3     4   ar
    17     4     5   ar
    18     5     6   ar
    19     6     7   ar
    20     7     8   ar
    21     8     9   ar
    22    17    12   ar
    23     9     1   ar
    24     9     4   ar
@<TRIPOS>MOLECULE
*****
 22 24 0 0 0
SMALL
GASTEIGER

@<TRIPOS>ATOM
      1 C         142.4868  142.1470  165.1083 C.ar    1  UNL1       -0.0158
      2 C         143.5791  142.9513  164.4681 C.ar    1  UNL1        0.0050
      3 S         142.9621  144.1857  163.8803 S.2     1  UNL1       -0.0915
      4 C         141.4885  144.1443  164.1572 C.ar    1  UNL1        0.0288
      5 C         140.3762  145.0912  163.8164 C.ar    1  UNL1        0.0065
      6 C         138.9701  144.7780  164.2344 C.ar    1  UNL1        0.0005
      7 C         138.6764  143.5180  164.9934 C.ar    1  UNL1        0.0000
      8 C         139.7886  142.5711  165.3342 C.ar    1  UNL1        0.0002
      9 C         141.1947  142.8843  164.9162 C.ar    1  UNL1        0.0025
     10 C         142.6876  139.5578  165.0311 C.3     1  UNL1        0.0095
     11 C         142.6567  140.8356  165.8163 C.3     1  UNL1        0.0463
     12 C         142.7956  140.8018  167.3094 C.ar    1  UNL1        0.0007
     13 C         143.0647  142.0685  168.0665 C.ar    1  UNL1       -0.0008
     14 C         143.2036  142.0348  169.5597 C.ar    1  UNL1        0.0204
     15 C         143.0734  140.7343  170.2958 C.ar    1  UNL1        0.0989
     16 N         142.8042  139.4677  169.5388 N.ar    1  UNL1       -0.2426
     17 C         142.6653  139.5014  168.0456 C.ar    1  UNL1        0.0949
     18 C         145.0331  142.5854  164.4235 C.3     1  UNL1        0.0499
     19 C         145.5107  141.5236  163.4778 C.3     1  UNL1        0.0774
     20 N         144.8707  141.3776  162.1291 N.3     1  UNL1       -0.2700
     21 C         144.2012  140.0892  161.7522 C.3     1  UNL1        0.0897
     22 C         144.9002  142.5197  161.1573 C.3     1  UNL1        0.0897
@<TRIPOS>BOND
     1    11    10    1
     2    11    12    1
     3    12    13   ar
     4    13    14   ar
     5    14    15   ar
     6    15    16   ar
     7    16    17   ar
     8    11     1    1
     9     1     2   ar
    10     2    18    1
    11    18    19    1
    12    19    20    1
    13    20    21    1
    14    20    22    1
    15     2     3   ar
    16     3     4   ar
    17     4     5   ar
    18     5     6   ar
    19     6     7   ar
    20     7     8   ar
    21     8     9   ar
    22    17    12   ar
    23     9     1   ar
    24     9     4   ar
@<TRIPOS>MOLECULE
*****
 22 24 0 0 0
SMALL
GASTEIGER

@<TRIPOS>ATOM
      1 C         138.7768  139.9576  164.6529 C.ar    1  UNL1       -0.0158
      2 C         138.9762  139.1295  163.4183 C.ar    1  UNL1        0.0050
      3 S         138.7719  140.0173  162.2267 S.2     1  UNL1       -0.0915
      4 C         138.4462  141.3942  162.7249 C.ar    1  UNL1        0.0288
      5 C         138.1473  142.6768  162.0068 C.ar    1  UNL1        0.0065
      6 C         137.8514  143.9224  162.7883 C.ar    1  UNL1        0.0005
      7 C         137.8544  143.8855  164.2878 C.ar    1  UNL1        0.0000
      8 C         138.1533  142.6029  165.0059 C.ar    1  UNL1        0.0002
      9 C         138.4492  141.3573  164.2244 C.ar    1  UNL1        0.0025
     10 C         137.7905  138.6348  166.6599 C.3     1  UNL1        0.0095
     11 C         138.8858  139.4715  166.0678 C.3     1  UNL1        0.0463
     12 C         140.0899  139.8219  166.8906 C.ar    1  UNL1        0.0007
     13 C         141.4666  139.5890  166.3423 C.ar    1  UNL1       -0.0008
     14 C         142.6709  139.9394  167.1651 C.ar    1  UNL1        0.0204
     15 C         142.4984  140.5227  168.5363 C.ar    1  UNL1        0.0989
     16 N         141.1218  140.7556  169.0845 N.ar    1  UNL1       -0.2426
     17 C         139.9176  140.4052  168.2617 C.ar    1  UNL1        0.0949
     18 C         139.3196  137.6698  163.3817 C.3     1  UNL1        0.0499
     19 C         140.7501  137.2328  163.4936 C.3     1  UNL1        0.0774
     20 N         141.8052  137.8992  162.6613 N.3     1  UNL1       -0.2700
     21 C         142.9873  138.5429  163.3236 C.3     1  UNL1        0.0897
     22 C         141.6784  137.9219  161.1669 C.3     1  UNL1        0.0897
@<TRIPOS>BOND
     1    11    10    1
     2    11    12    1
     3    12    13   ar
     4    13    14   ar
     5    14    15   ar
     6    15    16   ar
     7    16    17   ar
     8    11     1    1
     9     1     2   ar
    10     2    18    1
    11    18    19    1
    12    19    20    1
    13    20    21    1
    14    20    22    1
    15     2     3   ar
    16     3     4   ar
    17     4     5   ar
    18     5     6   ar
    19     6     7   ar
    20     7     8   ar
    21     8     9   ar
    22    17    12   ar
    23     9     1   ar
    24     9     4   ar
