@<TRIPOS>MOLECULE
*****
 19 20 0 0 0
SMALL
GASTEIGER

@<TRIPOS>ATOM
      1 C         139.1189  140.1188  166.0263 C.3     1  UNL1        0.0638
      2 C         140.0867  140.0150  167.1677 C.ar    1  UNL1       -0.0168
      3 C         139.6011  140.1664  168.5788 C.ar    1  UNL1       -0.0030
      4 C         140.5688  140.0626  169.7202 C.ar    1  UNL1        0.0111
      5 C         142.0221  139.8075  169.4504 C.ar    1  UNL1        0.0577
      6 CL        142.9898  139.7037  170.5918 Cl      1  UNL1       -0.0822
      7 C         142.5077  139.6561  168.0393 C.ar    1  UNL1        0.0111
      8 C         141.5400  139.7599  166.8980 C.ar    1  UNL1       -0.0030
      9 C         138.9079  141.4355  165.3393 C.ar    1  UNL1        0.0627
     10 C         139.6483  142.6530  165.8077 C.ar    1  UNL1        0.0151
     11 C         139.4373  143.9696  165.1207 C.ar    1  UNL1        0.0028
     12 C         138.4858  144.0688  163.9654 C.ar    1  UNL1        0.0207
     13 C         137.7452  142.8512  163.4971 C.ar    1  UNL1        0.0985
     14 N         137.9563  141.5346  164.1840 N.ar    1  UNL1       -0.2478
     15 C         138.3623  138.9060  165.5719 C.3     1  UNL1        0.0276
     16 C         139.1019  137.7252  165.0161 C.3     1  UNL1        0.0729
     17 C         140.8763  137.2789  163.1717 C.3     1  UNL1        0.0897
     18 N         139.4917  137.6982  163.5680 N.3     1  UNL1       -0.2703
     19 C         138.4969  138.0904  162.5160 C.3     1  UNL1        0.0897
@<TRIPOS>BOND
     1    17    18    1
     2    18    19    1
     3    18    16    1
     4    16    15    1
     5    15     1    1
     6     1     2    1
     7     2     3   ar
     8     3     4   ar
     9     4     5   ar
    10     5     6    1
    11     5     7   ar
    12     7     8   ar
    13     1     9    1
    14     9    10   ar
    15    10    11   ar
    16    11    12   ar
    17    12    13   ar
    18    13    14   ar
    19     8     2   ar
    20    14     9   ar
@<TRIPOS>MOLECULE
*****
 19 20 0 0 0
SMALL
GASTEIGER

@<TRIPOS>ATOM
      1 C         139.1440  139.9815  166.3462 C.3     1  UNL1        0.0638
      2 C         139.0522  141.2484  165.5482 C.ar    1  UNL1       -0.0168
      3 C         139.9267  142.4172  165.8932 C.ar    1  UNL1       -0.0030
      4 C         139.8349  143.6839  165.0951 C.ar    1  UNL1        0.0111
      5 C         138.8685  143.7818  163.9521 C.ar    1  UNL1        0.0577
      6 CL        138.7767  145.0486  163.1540 Cl      1  UNL1       -0.0822
      7 C         137.9940  142.6130  163.6071 C.ar    1  UNL1        0.0111
      8 C         138.0858  141.3463  164.4051 C.ar    1  UNL1       -0.0030
      9 C         140.1851  139.8437  167.4173 C.ar    1  UNL1        0.0627
     10 C         141.6214  139.6267  167.0436 C.ar    1  UNL1        0.0151
     11 C         142.6625  139.4889  168.1146 C.ar    1  UNL1        0.0028
     12 C         142.2672  139.5679  169.5594 C.ar    1  UNL1        0.0207
     13 C         140.8308  139.7849  169.9332 C.ar    1  UNL1        0.0985
     14 N         139.7897  139.9228  168.8621 N.ar    1  UNL1       -0.2478
     15 C         138.1948  138.8527  166.0732 C.3     1  UNL1        0.0276
     16 C         138.7035  137.5713  165.4822 C.3     1  UNL1        0.0729
     17 C         140.9565  137.2631  164.2257 C.3     1  UNL1        0.0897
     18 N         139.4938  137.5950  164.2075 N.3     1  UNL1       -0.2703
     19 C         138.8214  137.9505  162.9146 C.3     1  UNL1        0.0897
@<TRIPOS>BOND
     1    17    18    1
     2    18    19    1
     3    18    16    1
     4    16    15    1
     5    15     1    1
     6     1     2    1
     7     2     3   ar
     8     3     4   ar
     9     4     5   ar
    10     5     6    1
    11     5     7   ar
    12     7     8   ar
    13     1     9    1
    14     9    10   ar
    15    10    11   ar
    16    11    12   ar
    17    12    13   ar
    18    13    14   ar
    19     8     2   ar
    20    14     9   ar
@<TRIPOS>MOLECULE
*****
 19 20 0 0 0
SMALL
GASTEIGER

@<TRIPOS>ATOM
      1 C         143.0262  142.7974  165.5851 C.3     1  UNL1        0.0638
      2 C         142.9115  141.7845  166.6856 C.ar    1  UNL1       -0.0168
      3 C         142.6992  140.3373  166.3537 C.ar    1  UNL1       -0.0030
      4 C         142.5845  139.3245  167.4542 C.ar    1  UNL1        0.0111
      5 C         142.6821  139.7590  168.8865 C.ar    1  UNL1        0.0577
      6 CL        142.5674  138.7461  169.9870 Cl      1  UNL1       -0.0822
      7 C         142.8945  141.2063  169.2184 C.ar    1  UNL1        0.0111
      8 C         143.0092  142.2191  168.1180 C.ar    1  UNL1       -0.0030
      9 C         141.7934  143.4556  165.0401 C.ar    1  UNL1        0.0627
     10 C         140.4647  143.2174  165.6940 C.ar    1  UNL1        0.0151
     11 C         139.2319  143.8756  165.1489 C.ar    1  UNL1        0.0028
     12 C         139.3278  144.7718  163.9500 C.ar    1  UNL1        0.0207
     13 C         140.6567  145.0100  163.2961 C.ar    1  UNL1        0.0985
     14 N         141.8895  144.3519  163.8411 N.ar    1  UNL1       -0.2478
     15 C         144.3737  143.1521  165.0297 C.3     1  UNL1        0.0276
     16 C         145.1237  142.1605  164.1905 C.3     1  UNL1        0.0729
     17 C         144.5638  143.1500  161.8544 C.3     1  UNL1        0.0897
     18 N         144.7510  141.9622  162.7511 N.3     1  UNL1       -0.2703
     19 C         144.5655  140.5762  162.2085 C.3     1  UNL1        0.0897
@<TRIPOS>BOND
     1    17    18    1
     2    18    19    1
     3    18    16    1
     4    16    15    1
     5    15     1    1
     6     1     2    1
     7     2     3   ar
     8     3     4   ar
     9     4     5   ar
    10     5     6    1
    11     5     7   ar
    12     7     8   ar
    13     1     9    1
    14     9    10   ar
    15    10    11   ar
    16    11    12   ar
    17    12    13   ar
    18    13    14   ar
    19     8     2   ar
    20    14     9   ar
@<TRIPOS>MOLECULE
*****
 19 20 0 0 0
SMALL
GASTEIGER

@<TRIPOS>ATOM
      1 C         140.3085  142.0863  166.4728 C.3     1  UNL1        0.0638
      2 C         140.2032  143.1027  165.3746 C.ar    1  UNL1       -0.0168
      3 C         141.4414  143.5898  164.6822 C.ar    1  UNL1       -0.0030
      4 C         141.3360  144.6061  163.5840 C.ar    1  UNL1        0.0111
      5 C         139.9924  145.1352  163.1782 C.ar    1  UNL1        0.0577
      6 CL        139.8870  146.1515  162.0800 Cl      1  UNL1       -0.0822
      7 C         138.7541  144.6480  163.8706 C.ar    1  UNL1        0.0111
      8 C         138.8595  143.6318  164.9688 C.ar    1  UNL1       -0.0030
      9 C         141.0699  142.4103  167.7240 C.ar    1  UNL1        0.0627
     10 C         140.4119  143.1942  168.8206 C.ar    1  UNL1        0.0151
     11 C         141.1733  143.5181  170.0717 C.ar    1  UNL1        0.0028
     12 C         142.5927  143.0583  170.2262 C.ar    1  UNL1        0.0207
     13 C         143.2507  142.2744  169.1296 C.ar    1  UNL1        0.0985
     14 N         142.4893  141.9504  167.8784 N.ar    1  UNL1       -0.2478
     15 C         139.6526  140.7461  166.3199 C.3     1  UNL1        0.0276
     16 C         140.4434  139.5777  165.8105 C.3     1  UNL1        0.0729
     17 C         140.9909  140.0143  163.3086 C.3     1  UNL1        0.0897
     18 N         141.4503  139.7735  164.7161 N.3     1  UNL1       -0.2703
     19 C         142.9166  139.7285  165.0291 C.3     1  UNL1        0.0897
@<TRIPOS>BOND
     1    17    18    1
     2    18    19    1
     3    18    16    1
     4    16    15    1
     5    15     1    1
     6     1     2    1
     7     2     3   ar
     8     3     4   ar
     9     4     5   ar
    10     5     6    1
    11     5     7   ar
    12     7     8   ar
    13     1     9    1
    14     9    10   ar
    15    10    11   ar
    16    11    12   ar
    17    12    13   ar
    18    13    14   ar
    19     8     2   ar
    20    14     9   ar
@<TRIPOS>MOLECULE
*****
 19 20 0 0 0
SMALL
GASTEIGER

@<TRIPOS>ATOM
      1 C         139.9125  141.9187  166.0780 C.3     1  UNL1        0.0638
      2 C         140.7721  142.2460  167.2629 C.ar    1  UNL1       -0.0168
      3 C         140.1707  142.9126  168.4645 C.ar    1  UNL1       -0.0030
      4 C         141.0303  143.2399  169.6494 C.ar    1  UNL1        0.0111
      5 C         142.4913  142.9004  169.6327 C.ar    1  UNL1        0.0577
      6 CL        143.3509  143.2277  170.8176 Cl      1  UNL1       -0.0822
      7 C         143.0927  142.2338  168.4311 C.ar    1  UNL1        0.0111
      8 C         142.2331  141.9066  167.2462 C.ar    1  UNL1       -0.0030
      9 C         139.6172  140.4879  165.7379 C.ar    1  UNL1        0.0627
     10 C         138.5724  139.7346  166.5065 C.ar    1  UNL1        0.0151
     11 C         138.2771  138.3038  166.1665 C.ar    1  UNL1        0.0028
     12 C         139.0266  137.6263  165.0579 C.ar    1  UNL1        0.0207
     13 C         140.0715  138.3796  164.2892 C.ar    1  UNL1        0.0985
     14 N         140.3668  139.8104  164.6292 N.ar    1  UNL1       -0.2478
     15 C         139.3482  143.0222  165.2331 C.3     1  UNL1        0.0276
     16 C         140.2676  144.0083  164.5754 C.3     1  UNL1        0.0729
     17 C         138.3920  144.6873  162.9108 C.3     1  UNL1        0.0897
     18 N         139.8299  144.7303  163.3356 N.3     1  UNL1       -0.2703
     19 C         140.8302  145.4954  162.5206 C.3     1  UNL1        0.0897
@<TRIPOS>BOND
     1    17    18    1
     2    18    19    1
     3    18    16    1
     4    16    15    1
     5    15     1    1
     6     1     2    1
     7     2     3   ar
     8     3     4   ar
     9     4     5   ar
    10     5     6    1
    11     5     7   ar
    12     7     8   ar
    13     1     9    1
    14     9    10   ar
    15    10    11   ar
    16    11    12   ar
    17    12    13   ar
    18    13    14   ar
    19     8     2   ar
    20    14     9   ar
@<TRIPOS>MOLECULE
*****
 19 20 0 0 0
SMALL
GASTEIGER

@<TRIPOS>ATOM
      1 C         141.8340  140.5581  166.8545 C.3     1  UNL1        0.0638
      2 C         142.2167  141.7329  166.0038 C.ar    1  UNL1       -0.0168
      3 C         143.6640  142.0461  165.7649 C.ar    1  UNL1       -0.0030
      4 C         144.0467  143.2207  164.9142 C.ar    1  UNL1        0.0111
      5 C         142.9820  144.0822  164.3024 C.ar    1  UNL1        0.0577
      6 CL        143.3647  145.2569  163.4517 Cl      1  UNL1       -0.0822
      7 C         141.5346  143.7690  164.5413 C.ar    1  UNL1        0.0111
      8 C         141.1520  142.5943  165.3920 C.ar    1  UNL1       -0.0030
      9 C         140.6977  139.6708  166.4404 C.ar    1  UNL1        0.0627
     10 C         139.3661  139.7909  167.1204 C.ar    1  UNL1        0.0151
     11 C         138.2298  138.9035  166.7064 C.ar    1  UNL1        0.0028
     12 C         138.4251  137.8961  165.6123 C.ar    1  UNL1        0.0207
     13 C         139.7567  137.7760  164.9323 C.ar    1  UNL1        0.0985
     14 N         140.8930  138.6634  165.3463 N.ar    1  UNL1       -0.2478
     15 C         142.5876  140.2708  168.1192 C.3     1  UNL1        0.0276
     16 C         142.4765  141.2053  169.2873 C.3     1  UNL1        0.0729
     17 C         140.3306  140.6911  170.6585 C.3     1  UNL1        0.0897
     18 N         141.1255  141.6203  169.7899 N.3     1  UNL1       -0.2703
     19 C         140.5695  142.9645  169.4238 C.3     1  UNL1        0.0897
@<TRIPOS>BOND
     1    17    18    1
     2    18    19    1
     3    18    16    1
     4    16    15    1
     5    15     1    1
     6     1     2    1
     7     2     3   ar
     8     3     4   ar
     9     4     5   ar
    10     5     6    1
    11     5     7   ar
    12     7     8   ar
    13     1     9    1
    14     9    10   ar
    15    10    11   ar
    16    11    12   ar
    17    12    13   ar
    18    13    14   ar
    19     8     2   ar
    20    14     9   ar
@<TRIPOS>MOLECULE
*****
 19 20 0 0 0
SMALL
GASTEIGER

@<TRIPOS>ATOM
      1 C         140.0858  141.8287  166.1504 C.3     1  UNL1        0.0638
      2 C         140.0038  142.9174  165.1217 C.ar    1  UNL1       -0.0168
      3 C         138.6927  143.2305  164.4639 C.ar    1  UNL1       -0.0030
      4 C         138.6107  144.3192  163.4353 C.ar    1  UNL1        0.0111
      5 C         139.8400  145.0948  163.0646 C.ar    1  UNL1        0.0577
      6 CL        139.7580  146.1835  162.0359 Cl      1  UNL1       -0.0822
      7 C         141.1511  144.7817  163.7224 C.ar    1  UNL1        0.0111
      8 C         141.2331  143.6930  164.7510 C.ar    1  UNL1       -0.0030
      9 C         139.7734  140.4119  165.7694 C.ar    1  UNL1        0.0627
     10 C         138.5903  139.7161  166.3744 C.ar    1  UNL1        0.0151
     11 C         138.2779  138.2993  165.9934 C.ar    1  UNL1        0.0028
     12 C         139.1486  137.5784  165.0075 C.ar    1  UNL1        0.0207
     13 C         140.3318  138.2742  164.4025 C.ar    1  UNL1        0.0985
     14 N         140.6442  139.6910  164.7835 N.ar    1  UNL1       -0.2478
     15 C         140.4802  142.1568  167.5599 C.3     1  UNL1        0.0276
     16 C         141.4284  141.2615  168.3011 C.3     1  UNL1        0.0729
     17 C         139.4911  140.4706  169.8410 C.3     1  UNL1        0.0897
     18 N         140.9170  140.3630  169.3879 N.3     1  UNL1       -0.2703
     19 C         141.8314  139.3568  170.0216 C.3     1  UNL1        0.0897
@<TRIPOS>BOND
     1    17    18    1
     2    18    19    1
     3    18    16    1
     4    16    15    1
     5    15     1    1
     6     1     2    1
     7     2     3   ar
     8     3     4   ar
     9     4     5   ar
    10     5     6    1
    11     5     7   ar
    12     7     8   ar
    13     1     9    1
    14     9    10   ar
    15    10    11   ar
    16    11    12   ar
    17    12    13   ar
    18    13    14   ar
    19     8     2   ar
    20    14     9   ar
@<TRIPOS>MOLECULE
*****
 19 20 0 0 0
SMALL
GASTEIGER

@<TRIPOS>ATOM
      1 C         142.2261  139.5914  165.5675 C.3     1  UNL1        0.0638
      2 C         141.7227  139.6941  166.9768 C.ar    1  UNL1       -0.0168
      3 C         142.6475  139.4195  168.1254 C.ar    1  UNL1       -0.0030
      4 C         142.1441  139.5222  169.5346 C.ar    1  UNL1        0.0111
      5 C         140.7160  139.8995  169.7953 C.ar    1  UNL1        0.0577
      6 CL        140.2126  140.0022  171.2046 Cl      1  UNL1       -0.0822
      7 C         139.7912  140.1741  168.6467 C.ar    1  UNL1        0.0111
      8 C         140.2946  140.0714  167.2375 C.ar    1  UNL1       -0.0030
      9 C         143.2970  140.5237  165.0838 C.ar    1  UNL1        0.0627
     10 C         143.2689  141.9694  165.4825 C.ar    1  UNL1        0.0151
     11 C         144.3398  142.9018  164.9988 C.ar    1  UNL1        0.0028
     12 C         145.4388  142.3884  164.1164 C.ar    1  UNL1        0.0207
     13 C         145.4669  140.9426  163.7176 C.ar    1  UNL1        0.0985
     14 N         144.3960  140.0102  164.2013 N.ar    1  UNL1       -0.2478
     15 C         141.6586  138.5564  164.6419 C.3     1  UNL1        0.0276
     16 C         140.9190  138.9791  163.4073 C.3     1  UNL1        0.0729
     17 C         138.6061  140.0526  163.9053 C.3     1  UNL1        0.0897
     18 N         139.4209  138.9123  163.3707 N.3     1  UNL1       -0.2703
     19 C         138.7377  137.7053  162.7994 C.3     1  UNL1        0.0897
@<TRIPOS>BOND
     1    17    18    1
     2    18    19    1
     3    18    16    1
     4    16    15    1
     5    15     1    1
     6     1     2    1
     7     2     3   ar
     8     3     4   ar
     9     4     5   ar
    10     5     6    1
    11     5     7   ar
    12     7     8   ar
    13     1     9    1
    14     9    10   ar
    15    10    11   ar
    16    11    12   ar
    17    12    13   ar
    18    13    14   ar
    19     8     2   ar
    20    14     9   ar
@<TRIPOS>MOLECULE
*****
 19 20 0 0 0
SMALL
GASTEIGER

@<TRIPOS>ATOM
      1 C         140.6214  143.0364  165.5345 C.3     1  UNL1        0.0638
      2 C         140.3852  142.2790  166.8076 C.ar    1  UNL1       -0.0168
      3 C         139.9929  140.8322  166.7578 C.ar    1  UNL1       -0.0030
      4 C         139.7567  140.0749  168.0309 C.ar    1  UNL1        0.0111
      5 C         139.9129  140.7645  169.3537 C.ar    1  UNL1        0.0577
      6 CL        139.6767  140.0072  170.6269 Cl      1  UNL1       -0.0822
      7 C         140.3052  142.2114  169.4036 C.ar    1  UNL1        0.0111
      8 C         140.5413  142.9687  168.1305 C.ar    1  UNL1       -0.0030
      9 C         141.8875  142.8231  164.7589 C.ar    1  UNL1        0.0627
     10 C         143.2078  142.7990  165.4703 C.ar    1  UNL1        0.0151
     11 C         144.4738  142.5857  164.6946 C.ar    1  UNL1        0.0028
     12 C         144.4196  142.3966  163.2076 C.ar    1  UNL1        0.0207
     13 C         143.0992  142.4208  162.4961 C.ar    1  UNL1        0.0985
     14 N         141.8331  142.6341  163.2718 N.ar    1  UNL1       -0.2478
     15 C         139.5916  144.0069  165.0371 C.3     1  UNL1        0.0276
     16 C         138.2398  143.5142  164.6125 C.3     1  UNL1        0.0729
     17 C         137.9280  141.1017  163.7002 C.3     1  UNL1        0.0897
     18 N         138.1158  142.5694  163.4541 N.3     1  UNL1       -0.2703
     19 C         138.1795  143.0922  162.0497 C.3     1  UNL1        0.0897
@<TRIPOS>BOND
     1    17    18    1
     2    18    19    1
     3    18    16    1
     4    16    15    1
     5    15     1    1
     6     1     2    1
     7     2     3   ar
     8     3     4   ar
     9     4     5   ar
    10     5     6    1
    11     5     7   ar
    12     7     8   ar
    13     1     9    1
    14     9    10   ar
    15    10    11   ar
    16    11    12   ar
    17    12    13   ar
    18    13    14   ar
    19     8     2   ar
    20    14     9   ar
