@<TRIPOS>MOLECULE
*****
 34 38 0 0 0
SMALL
GASTEIGER

@<TRIPOS>ATOM
      1 C         139.8229  144.5081  157.6756 C.3     1  UNL1        0.0501
      2 C         139.4733  143.5275  158.7555 C.2     1  UNL1        0.0727
      3 N         138.4013  142.4809  158.6828 N.2     1  UNL1       -0.1562
      4 N         138.3997  141.7279  159.9801 N.2     1  UNL1       -0.1521
      5 C         139.4709  142.3091  160.8547 C.2     1  UNL1        0.0954
      6 C         140.1344  143.4213  160.0978 C.3     1  UNL1        0.1563
      7 C         141.2548  144.1937  160.7287 C.2     1  UNL1        0.2401
      8 O         141.9184  145.3060  159.9719 O.2     1  UNL1       -0.2737
      9 N         141.7117  143.8539  162.1164 N.am    1  UNL1       -0.2551
     10 C         141.0483  142.7417  162.8732 C.ar    1  UNL1        0.0548
     11 C         141.5052  142.4019  164.2610 C.ar    1  UNL1        0.0104
     12 C         140.8417  141.2898  165.0178 C.ar    1  UNL1       -0.0252
     13 C         139.7213  140.5174  164.3869 C.ar    1  UNL1       -0.0263
     14 C         139.2643  140.8571  162.9992 C.ar    1  UNL1       -0.0021
     15 C         139.9278  141.9693  162.2424 C.ar    1  UNL1        0.0295
     16 C         141.2986  140.9499  166.4055 C.3     1  UNL1        0.0221
     17 C         142.2039  139.7753  166.6305 C.3     1  UNL1        0.0043
     18 C         142.6608  139.4355  168.0183 C.3     1  UNL1        0.0003
     19 C         142.2124  140.2703  169.1810 C.3     1  UNL1        0.0000
     20 C         141.3071  141.4450  168.9560 C.3     1  UNL1        0.0003
     21 C         140.8502  141.7848  167.5682 C.3     1  UNL1        0.0043
     22 C         139.0577  139.4051  165.1437 C.3     1  UNL1        0.0220
     23 C         139.2028  137.9878  164.6746 C.3     1  UNL1        0.0043
     24 C         138.5393  136.8757  165.4314 C.3     1  UNL1        0.0003
     25 C         137.7306  137.1808  166.6574 C.3     1  UNL1        0.0000
     26 C         137.5855  138.5982  167.1265 C.3     1  UNL1        0.0003
     27 C         138.2491  139.7103  166.3696 C.3     1  UNL1        0.0043
     28 C         142.8322  144.6263  162.7474 C.3     1  UNL1        0.1348
     29 C         144.1214  143.9375  163.0843 C.3     1  UNL1        0.1964
     30 F         144.6967  144.0562  164.4646 F       1  UNL1       -0.2339
     31 C         144.8353  143.1300  162.0411 C.3     1  UNL1        0.1027
     32 N         145.7291  141.9973  162.4511 N.3     1  UNL1       -0.3188
     33 H         146.5320  142.3653  162.9612 H       1  UNL1        0.1189
     34 H         146.0522  141.5013  161.6205 H       1  UNL1        0.1189
@<TRIPOS>BOND
     1     1     2    1
     2     2     3    2
     3     3     4    1
     4     4     5    2
     5     5     6    1
     6     6     7    1
     7     7     8    2
     8     7     9   am
     9     9    28    1
    10    28    29    1
    11    29    30    1
    12    29    31    1
    13    31    32    1
    14     9    10    1
    15    10    11   ar
    16    11    12   ar
    17    12    16    1
    18    16    17    1
    19    17    18    1
    20    18    19    1
    21    19    20    1
    22    20    21    1
    23    12    13   ar
    24    13    22    1
    25    22    23    1
    26    23    24    1
    27    24    25    1
    28    25    26    1
    29    26    27    1
    30    13    14   ar
    31    14    15   ar
    32     6     2    1
    33    15    10   ar
    34    15     5    1
    35    21    16    1
    36    27    22    1
    37    32    33    1
    38    32    34    1
@<TRIPOS>MOLECULE
*****
 34 38 0 0 0
SMALL
GASTEIGER

@<TRIPOS>ATOM
      1 C         136.8339  139.0192  170.8225 C.3     1  UNL1        0.0501
      2 C         137.3248  138.8813  169.4119 C.2     1  UNL1        0.0727
      3 N         136.7410  137.9871  168.3586 N.2     1  UNL1       -0.1562
      4 N         137.5412  138.1665  167.1026 N.2     1  UNL1       -0.1521
      5 C         138.6196  139.1716  167.3796 C.2     1  UNL1        0.0954
      6 C         138.4858  139.6134  168.8069 C.3     1  UNL1        0.1563
      7 C         139.4386  140.6252  169.3712 C.2     1  UNL1        0.2401
      8 O         139.3049  141.0670  170.7985 O.2     1  UNL1       -0.2737
      9 N         140.5251  141.1953  168.5082 N.am    1  UNL1       -0.2551
     10 C         140.6587  140.7536  167.0811 C.ar    1  UNL1        0.0548
     11 C         141.7452  141.3236  166.2181 C.ar    1  UNL1        0.0104
     12 C         141.8789  140.8819  164.7910 C.ar    1  UNL1       -0.0252
     13 C         140.9262  139.8701  164.2266 C.ar    1  UNL1       -0.0263
     14 C         139.8398  139.3000  165.0895 C.ar    1  UNL1       -0.0021
     15 C         139.7060  139.7417  166.5168 C.ar    1  UNL1        0.0295
     16 C         142.9654  141.4520  163.9280 C.3     1  UNL1        0.0221
     17 C         142.6527  142.5517  162.9571 C.3     1  UNL1        0.0043
     18 C         143.7392  143.1218  162.0941 C.3     1  UNL1        0.0003
     19 C         145.1384  142.5920  162.2021 C.3     1  UNL1        0.0000
     20 C         145.4511  141.4923  163.1731 C.3     1  UNL1        0.0003
     21 C         144.3646  140.9223  164.0360 C.3     1  UNL1        0.0043
     22 C         141.0599  139.4283  162.7994 C.3     1  UNL1        0.0220
     23 C         140.2190  140.0676  161.7344 C.3     1  UNL1        0.0043
     24 C         140.3527  139.6258  160.3073 C.3     1  UNL1        0.0003
     25 C         141.3273  138.5446  159.9450 C.3     1  UNL1        0.0000
     26 C         142.1682  137.9053  161.0099 C.3     1  UNL1        0.0003
     27 C         142.0345  138.3471  162.4371 C.3     1  UNL1        0.0043
     28 C         141.4778  142.2072  169.0726 C.3     1  UNL1        0.1348
     29 C         142.8015  141.7657  169.6231 C.3     1  UNL1        0.1964
     30 F         144.0538  142.4990  169.2436 F       1  UNL1       -0.2339
     31 C         142.8728  140.5909  170.5530 C.3     1  UNL1        0.1027
     32 N         142.1605  140.6345  171.8725 N.3     1  UNL1       -0.3188
     33 H         142.5860  141.3474  172.4651 H       1  UNL1        0.1189
     34 H         142.2338  139.7252  172.3286 H       1  UNL1        0.1189
@<TRIPOS>BOND
     1     1     2    1
     2     2     3    2
     3     3     4    1
     4     4     5    2
     5     5     6    1
     6     6     7    1
     7     7     8    2
     8     7     9   am
     9     9    28    1
    10    28    29    1
    11    29    30    1
    12    29    31    1
    13    31    32    1
    14     9    10    1
    15    10    11   ar
    16    11    12   ar
    17    12    16    1
    18    16    17    1
    19    17    18    1
    20    18    19    1
    21    19    20    1
    22    20    21    1
    23    12    13   ar
    24    13    22    1
    25    22    23    1
    26    23    24    1
    27    24    25    1
    28    25    26    1
    29    26    27    1
    30    13    14   ar
    31    14    15   ar
    32     6     2    1
    33    15    10   ar
    34    15     5    1
    35    21    16    1
    36    27    22    1
    37    32    33    1
    38    32    34    1
@<TRIPOS>MOLECULE
*****
 34 38 0 0 0
SMALL
GASTEIGER

@<TRIPOS>ATOM
      1 C         137.3813  142.0932  154.8838 C.3     1  UNL1        0.0501
      2 C         137.4168  141.5369  156.2764 C.2     1  UNL1        0.0727
      3 N         136.4088  140.6037  156.8790 N.2     1  UNL1       -0.1562
      4 N         136.8355  140.3061  158.2859 N.2     1  UNL1       -0.1521
      5 C         138.1072  141.0553  158.5528 C.2     1  UNL1        0.0954
      6 C         138.4665  141.8160  157.3109 C.3     1  UNL1        0.1563
      7 C         139.7030  142.6646  157.2825 C.2     1  UNL1        0.2401
      8 O         140.0623  143.4253  156.0406 O.2     1  UNL1       -0.2737
      9 N         140.5803  142.7524  158.4960 N.am    1  UNL1       -0.2551
     10 C         140.2211  141.9918  159.7379 C.ar    1  UNL1        0.0548
     11 C         141.0984  142.0797  160.9514 C.ar    1  UNL1        0.0104
     12 C         140.7392  141.3191  162.1933 C.ar    1  UNL1       -0.0252
     13 C         139.5026  140.4705  162.2217 C.ar    1  UNL1       -0.0263
     14 C         138.6253  140.3826  161.0082 C.ar    1  UNL1       -0.0021
     15 C         138.9845  141.1433  159.7663 C.ar    1  UNL1        0.0295
     16 C         141.6165  141.4070  163.4069 C.3     1  UNL1        0.0221
     17 C         141.4341  142.5298  164.3845 C.3     1  UNL1        0.0043
     18 C         142.3114  142.6176  165.5981 C.3     1  UNL1        0.0003
     19 C         143.3712  141.5826  165.8338 C.3     1  UNL1        0.0000
     20 C         143.5536  140.4597  164.8561 C.3     1  UNL1        0.0003
     21 C         142.6762  140.3719  163.6426 C.3     1  UNL1        0.0043
     22 C         139.1433  139.7098  163.4636 C.3     1  UNL1        0.0220
     23 C         139.5006  138.2580  163.5837 C.3     1  UNL1        0.0043
     24 C         139.1413  137.4974  164.8255 C.3     1  UNL1        0.0003
     25 C         138.4246  138.1886  165.9475 C.3     1  UNL1        0.0000
     26 C         138.0673  139.6404  165.8274 C.3     1  UNL1        0.0003
     27 C         138.4266  140.4011  164.5855 C.3     1  UNL1        0.0043
     28 C         141.8170  143.6010  158.4676 C.3     1  UNL1        0.1348
     29 C         141.7115  145.0866  158.6465 C.3     1  UNL1        0.1964
     30 F         141.3597  145.6572  159.9885 F       1  UNL1       -0.2339
     31 C         141.9577  146.0014  157.4836 C.3     1  UNL1        0.1027
     32 N         140.8077  146.4728  156.6436 N.3     1  UNL1       -0.3188
     33 H         140.3976  145.6785  156.1522 H       1  UNL1        0.1189
     34 H         141.1406  147.1575  155.9648 H       1  UNL1        0.1189
@<TRIPOS>BOND
     1     1     2    1
     2     2     3    2
     3     3     4    1
     4     4     5    2
     5     5     6    1
     6     6     7    1
     7     7     8    2
     8     7     9   am
     9     9    28    1
    10    28    29    1
    11    29    30    1
    12    29    31    1
    13    31    32    1
    14     9    10    1
    15    10    11   ar
    16    11    12   ar
    17    12    16    1
    18    16    17    1
    19    17    18    1
    20    18    19    1
    21    19    20    1
    22    20    21    1
    23    12    13   ar
    24    13    22    1
    25    22    23    1
    26    23    24    1
    27    24    25    1
    28    25    26    1
    29    26    27    1
    30    13    14   ar
    31    14    15   ar
    32     6     2    1
    33    15    10   ar
    34    15     5    1
    35    21    16    1
    36    27    22    1
    37    32    33    1
    38    32    34    1
@<TRIPOS>MOLECULE
*****
 34 38 0 0 0
SMALL
GASTEIGER

@<TRIPOS>ATOM
      1 C         136.1833  141.8650  153.8214 C.3     1  UNL1        0.0501
      2 C         136.5654  141.5853  155.2447 C.2     1  UNL1        0.0727
      3 N         136.0128  140.4893  156.1069 N.2     1  UNL1       -0.1562
      4 N         136.6731  140.5792  157.4508 N.2     1  UNL1       -0.1521
      5 C         137.6337  141.7308  157.4192 C.2     1  UNL1        0.0954
      6 C         137.5672  142.3526  156.0558 C.3     1  UNL1        0.1563
      7 C         138.4274  143.5371  155.7289 C.2     1  UNL1        0.2401
      8 O         138.3609  144.1590  154.3654 O.2     1  UNL1       -0.2737
      9 N         139.3542  144.0998  156.7655 N.am    1  UNL1       -0.2551
     10 C         139.4207  143.4781  158.1289 C.ar    1  UNL1        0.0548
     11 C         140.3475  144.0408  159.1655 C.ar    1  UNL1        0.0104
     12 C         140.4140  143.4190  160.5288 C.ar    1  UNL1       -0.0252
     13 C         139.5538  142.2345  160.8557 C.ar    1  UNL1       -0.0263
     14 C         138.6270  141.6717  159.8192 C.ar    1  UNL1       -0.0021
     15 C         138.5605  142.2935  158.4557 C.ar    1  UNL1        0.0295
     16 C         141.3408  143.9817  161.5655 C.3     1  UNL1        0.0221
     17 C         142.7858  143.5800  161.5769 C.3     1  UNL1        0.0043
     18 C         143.7126  144.1427  162.6136 C.3     1  UNL1        0.0003
     19 C         143.1941  145.1072  163.6387 C.3     1  UNL1        0.0000
     20 C         141.7490  145.5089  163.6272 C.3     1  UNL1        0.0003
     21 C         140.8223  144.9462  162.5906 C.3     1  UNL1        0.0043
     22 C         139.6202  141.6126  162.2192 C.3     1  UNL1        0.0220
     23 C         138.6167  141.9933  163.2670 C.3     1  UNL1        0.0043
     24 C         138.6832  141.3714  164.6303 C.3     1  UNL1        0.0003
     25 C         139.7534  140.3687  164.9459 C.3     1  UNL1        0.0000
     26 C         140.7569  139.9880  163.8981 C.3     1  UNL1        0.0003
     27 C         140.6904  140.6100  162.5347 C.3     1  UNL1        0.0043
     28 C         140.2144  145.2845  156.4386 C.3     1  UNL1        0.1348
     29 C         139.6310  146.6660  156.4681 C.3     1  UNL1        0.1964
     30 F         139.2651  147.2978  157.7785 F       1  UNL1       -0.2339
     31 C         139.4134  147.4157  155.1872 C.3     1  UNL1        0.1027
     32 N         139.8455  146.8135  153.8831 N.3     1  UNL1       -0.3188
     33 H         140.8624  146.7358  153.8648 H       1  UNL1        0.1189
     34 H         139.5362  147.4087  153.1147 H       1  UNL1        0.1189
@<TRIPOS>BOND
     1     1     2    1
     2     2     3    2
     3     3     4    1
     4     4     5    2
     5     5     6    1
     6     6     7    1
     7     7     8    2
     8     7     9   am
     9     9    28    1
    10    28    29    1
    11    29    30    1
    12    29    31    1
    13    31    32    1
    14     9    10    1
    15    10    11   ar
    16    11    12   ar
    17    12    16    1
    18    16    17    1
    19    17    18    1
    20    18    19    1
    21    19    20    1
    22    20    21    1
    23    12    13   ar
    24    13    22    1
    25    22    23    1
    26    23    24    1
    27    24    25    1
    28    25    26    1
    29    26    27    1
    30    13    14   ar
    31    14    15   ar
    32     6     2    1
    33    15    10   ar
    34    15     5    1
    35    21    16    1
    36    27    22    1
    37    32    33    1
    38    32    34    1
@<TRIPOS>MOLECULE
*****
 34 38 0 0 0
SMALL
GASTEIGER

@<TRIPOS>ATOM
      1 C         145.9109  141.0706  154.2591 C.3     1  UNL1        0.0501
      2 C         145.5718  141.3570  155.6919 C.2     1  UNL1        0.0727
      3 N         146.0812  142.5100  156.5051 N.2     1  UNL1       -0.1562
      4 N         145.4879  142.4063  157.8789 N.2     1  UNL1       -0.1521
      5 C         144.6118  141.1893  157.9148 C.2     1  UNL1        0.0954
      6 C         144.6636  140.5408  156.5632 C.3     1  UNL1        0.1563
      7 C         143.8772  139.2909  156.3004 C.2     1  UNL1        0.2401
      8 O         143.9290  138.6423  154.9488 O.2     1  UNL1       -0.2737
      9 N         143.0389  138.6894  157.3892 N.am    1  UNL1       -0.2551
     10 C         142.9871  139.3378  158.7408 C.ar    1  UNL1        0.0548
     11 C         142.1488  138.7363  159.8296 C.ar    1  UNL1        0.0104
     12 C         142.0970  139.3848  161.1811 C.ar    1  UNL1       -0.0252
     13 C         142.8834  140.6347  161.4440 C.ar    1  UNL1       -0.0263
     14 C         143.7217  141.2362  160.3552 C.ar    1  UNL1       -0.0021
     15 C         143.7735  140.5878  159.0036 C.ar    1  UNL1        0.0295
     16 C         141.2587  138.7833  162.2700 C.3     1  UNL1        0.0221
     17 C         139.8105  139.1540  162.3932 C.3     1  UNL1        0.0043
     18 C         138.9723  138.5525  163.4821 C.3     1  UNL1        0.0003
     19 C         139.5823  137.5803  164.4477 C.3     1  UNL1        0.0000
     20 C         141.0305  137.2096  164.3246 C.3     1  UNL1        0.0003
     21 C         141.8687  137.8110  163.2357 C.3     1  UNL1        0.0043
     22 C         142.8316  141.2833  162.7956 C.3     1  UNL1        0.0220
     23 C         141.7500  142.2733  163.1116 C.3     1  UNL1        0.0043
     24 C         141.6982  142.9217  164.4631 C.3     1  UNL1        0.0003
     25 C         142.7282  142.5802  165.4988 C.3     1  UNL1        0.0000
     26 C         143.8099  141.5902  165.1828 C.3     1  UNL1        0.0003
     27 C         143.8616  140.9418  163.8312 C.3     1  UNL1        0.0043
     28 C         142.2524  137.4393  157.1264 C.3     1  UNL1        0.1348
     29 C         142.9185  136.0991  157.2270 C.3     1  UNL1        0.1964
     30 F         143.1958  135.4986  158.5733 F       1  UNL1       -0.2339
     31 C         143.3072  135.3594  155.9813 C.3     1  UNL1        0.1027
     32 N         144.5015  135.8014  155.1885 N.3     1  UNL1       -0.3188
     33 H         144.3233  136.7236  154.7909 H       1  UNL1        0.1189
     34 H         144.6759  135.1348  154.4364 H       1  UNL1        0.1189
@<TRIPOS>BOND
     1     1     2    1
     2     2     3    2
     3     3     4    1
     4     4     5    2
     5     5     6    1
     6     6     7    1
     7     7     8    2
     8     7     9   am
     9     9    28    1
    10    28    29    1
    11    29    30    1
    12    29    31    1
    13    31    32    1
    14     9    10    1
    15    10    11   ar
    16    11    12   ar
    17    12    16    1
    18    16    17    1
    19    17    18    1
    20    18    19    1
    21    19    20    1
    22    20    21    1
    23    12    13   ar
    24    13    22    1
    25    22    23    1
    26    23    24    1
    27    24    25    1
    28    25    26    1
    29    26    27    1
    30    13    14   ar
    31    14    15   ar
    32     6     2    1
    33    15    10   ar
    34    15     5    1
    35    21    16    1
    36    27    22    1
    37    32    33    1
    38    32    34    1
@<TRIPOS>MOLECULE
*****
 34 38 0 0 0
SMALL
GASTEIGER

@<TRIPOS>ATOM
      1 C         139.1675  141.6732  155.9717 C.3     1  UNL1        0.0501
      2 C         138.8662  141.1146  157.3308 C.2     1  UNL1        0.0727
      3 N         137.6425  140.3354  157.7123 N.2     1  UNL1       -0.1562
      4 N         137.7557  139.9763  159.1643 N.2     1  UNL1       -0.1521
      5 C         139.0493  140.5335  159.6801 C.2     1  UNL1        0.0954
      6 C         139.7356  141.2370  158.5469 C.3     1  UNL1        0.1563
      7 C         141.0636  141.8982  158.7689 C.2     1  UNL1        0.2401
      8 O         141.7500  142.6017  157.6357 O.2     1  UNL1       -0.2737
      9 N         141.7053  141.8558  160.1241 N.am    1  UNL1       -0.2551
     10 C         141.0190  141.1524  161.2572 C.ar    1  UNL1        0.0548
     11 C         141.6607  141.1100  162.6125 C.ar    1  UNL1        0.0104
     12 C         140.9744  140.4066  163.7456 C.ar    1  UNL1       -0.0252
     13 C         139.6464  139.7454  163.5236 C.ar    1  UNL1       -0.0263
     14 C         139.0047  139.7877  162.1685 C.ar    1  UNL1       -0.0021
     15 C         139.6910  140.4912  161.0353 C.ar    1  UNL1        0.0295
     16 C         141.6161  140.3642  165.1008 C.3     1  UNL1        0.0221
     17 C         142.2660  139.1017  165.5838 C.3     1  UNL1        0.0043
     18 C         142.9077  139.0593  166.9390 C.3     1  UNL1        0.0003
     19 C         142.8993  140.2797  167.8112 C.3     1  UNL1        0.0000
     20 C         142.2493  141.5423  167.3281 C.3     1  UNL1        0.0003
     21 C         141.6077  141.5846  165.9730 C.3     1  UNL1        0.0043
     22 C         138.9600  139.0419  164.6568 C.3     1  UNL1        0.0220
     23 C         138.8395  137.5468  164.6484 C.3     1  UNL1        0.0043
     24 C         138.1532  136.8433  165.7815 C.3     1  UNL1        0.0003
     25 C         137.5873  137.6350  166.9231 C.3     1  UNL1        0.0000
     26 C         137.7078  139.1301  166.9315 C.3     1  UNL1        0.0003
     27 C         138.3942  139.8335  165.7983 C.3     1  UNL1        0.0043
     28 C         143.0333  142.5170  160.3461 C.3     1  UNL1        0.1348
     29 C         143.1553  143.6437  161.3288 C.3     1  UNL1        0.1964
     30 F         144.3827  143.7647  162.1826 F       1  UNL1       -0.2339
     31 C         142.0498  144.6494  161.4577 C.3     1  UNL1        0.1027
     32 N         141.6044  145.4321  160.2580 N.3     1  UNL1       -0.3188
     33 H         142.3595  146.0465  159.9534 H       1  UNL1        0.1189
     34 H         140.7876  145.9924  160.5016 H       1  UNL1        0.1189
@<TRIPOS>BOND
     1     1     2    1
     2     2     3    2
     3     3     4    1
     4     4     5    2
     5     5     6    1
     6     6     7    1
     7     7     8    2
     8     7     9   am
     9     9    28    1
    10    28    29    1
    11    29    30    1
    12    29    31    1
    13    31    32    1
    14     9    10    1
    15    10    11   ar
    16    11    12   ar
    17    12    16    1
    18    16    17    1
    19    17    18    1
    20    18    19    1
    21    19    20    1
    22    20    21    1
    23    12    13   ar
    24    13    22    1
    25    22    23    1
    26    23    24    1
    27    24    25    1
    28    25    26    1
    29    26    27    1
    30    13    14   ar
    31    14    15   ar
    32     6     2    1
    33    15    10   ar
    34    15     5    1
    35    21    16    1
    36    27    22    1
    37    32    33    1
    38    32    34    1
@<TRIPOS>MOLECULE
*****
 34 38 0 0 0
SMALL
GASTEIGER

@<TRIPOS>ATOM
      1 C         141.7321  141.5504  170.0656 C.3     1  UNL1        0.0501
      2 C         142.0924  141.7963  168.6304 C.2     1  UNL1        0.0727
      3 N         143.2909  142.5530  168.1395 N.2     1  UNL1       -0.1562
      4 N         143.2567  142.5531  166.6398 N.2     1  UNL1       -0.1521
      5 C         142.0371  141.7965  166.2040 C.2     1  UNL1        0.0954
      6 C         141.3175  141.3288  167.4342 C.3     1  UNL1        0.1563
      7 C         140.0496  140.5375  167.3063 C.2     1  UNL1        0.2401
      8 O         139.3300  140.0698  168.5365 O.2     1  UNL1       -0.2737
      9 N         139.5013  140.2141  165.9480 N.am    1  UNL1       -0.2551
     10 C         140.2208  140.6818  164.7179 C.ar    1  UNL1        0.0548
     11 C         139.6725  140.3583  163.3596 C.ar    1  UNL1        0.0104
     12 C         140.3920  140.8260  162.1294 C.ar    1  UNL1       -0.0252
     13 C         141.6599  141.6172  162.2574 C.ar    1  UNL1       -0.0263
     14 C         142.2083  141.9407  163.6155 C.ar    1  UNL1       -0.0021
     15 C         141.4887  141.4730  164.8458 C.ar    1  UNL1        0.0295
     16 C         139.8437  140.5025  160.7712 C.3     1  UNL1        0.0221
     17 C         138.8155  141.3971  160.1449 C.3     1  UNL1        0.0043
     18 C         138.2672  141.0736  158.7866 C.3     1  UNL1        0.0003
     19 C         138.7472  139.8554  158.0548 C.3     1  UNL1        0.0000
     20 C         139.7755  138.9608  158.6811 C.3     1  UNL1        0.0003
     21 C         140.3237  139.2843  160.0393 C.3     1  UNL1        0.0043
     22 C         142.3796  142.0850  161.0272 C.3     1  UNL1        0.0220
     23 C         141.9486  143.3469  160.3403 C.3     1  UNL1        0.0043
     24 C         142.6682  143.8146  159.1102 C.3     1  UNL1        0.0003
     25 C         143.8189  143.0204  158.5668 C.3     1  UNL1        0.0000
     26 C         144.2498  141.7584  159.2536 C.3     1  UNL1        0.0003
     27 C         143.5302  141.2907  160.4838 C.3     1  UNL1        0.0043
     28 C         138.2333  139.4228  165.8201 C.3     1  UNL1        0.1348
     29 C         138.2815  137.9236  165.8210 C.3     1  UNL1        0.1964
     30 F         139.1233  137.1997  164.8122 F       1  UNL1       -0.2339
     31 C         137.4881  137.1483  166.8306 C.3     1  UNL1        0.1027
     32 N         136.7657  137.8687  167.9303 N.3     1  UNL1       -0.3188
     33 H         137.4444  138.3114  168.5499 H       1  UNL1        0.1189
     34 H         136.2041  137.2031  168.4613 H       1  UNL1        0.1189
@<TRIPOS>BOND
     1     1     2    1
     2     2     3    2
     3     3     4    1
     4     4     5    2
     5     5     6    1
     6     6     7    1
     7     7     8    2
     8     7     9   am
     9     9    28    1
    10    28    29    1
    11    29    30    1
    12    29    31    1
    13    31    32    1
    14     9    10    1
    15    10    11   ar
    16    11    12   ar
    17    12    16    1
    18    16    17    1
    19    17    18    1
    20    18    19    1
    21    19    20    1
    22    20    21    1
    23    12    13   ar
    24    13    22    1
    25    22    23    1
    26    23    24    1
    27    24    25    1
    28    25    26    1
    29    26    27    1
    30    13    14   ar
    31    14    15   ar
    32     6     2    1
    33    15    10   ar
    34    15     5    1
    35    21    16    1
    36    27    22    1
    37    32    33    1
    38    32    34    1
@<TRIPOS>MOLECULE
*****
 34 38 0 0 0
SMALL
GASTEIGER

@<TRIPOS>ATOM
      1 C         142.5946  139.3888  168.0649 C.3     1  UNL1        0.0501
      2 C         142.9083  139.4799  166.6009 C.2     1  UNL1        0.0727
      3 N         143.9068  138.6413  165.8593 N.2     1  UNL1       -0.1562
      4 N         143.8943  139.0687  164.4215 N.2     1  UNL1       -0.1521
      5 C         142.8880  140.1713  164.2744 C.2     1  UNL1        0.0954
      6 C         142.2787  140.4255  165.6214 C.3     1  UNL1        0.1563
      7 C         141.2293  141.4851  165.7819 C.2     1  UNL1        0.2401
      8 O         140.6199  141.7393  167.1288 O.2     1  UNL1       -0.2737
      9 N         140.7891  142.2906  164.5955 N.am    1  UNL1       -0.2551
     10 C         141.3985  142.0365  163.2487 C.ar    1  UNL1        0.0548
     11 C         140.9583  142.8420  162.0622 C.ar    1  UNL1        0.0104
     12 C         141.5677  142.5878  160.7154 C.ar    1  UNL1       -0.0252
     13 C         142.6171  141.5282  160.5548 C.ar    1  UNL1       -0.0263
     14 C         143.0572  140.7227  161.7412 C.ar    1  UNL1       -0.0021
     15 C         142.4479  140.9768  163.0881 C.ar    1  UNL1        0.0295
     16 C         141.1275  143.3934  159.5290 C.3     1  UNL1        0.0221
     17 C         140.0838  142.8499  158.5989 C.3     1  UNL1        0.0043
     18 C         139.6437  143.6554  157.4125 C.3     1  UNL1        0.0003
     19 C         140.2475  145.0044  157.1562 C.3     1  UNL1        0.0000
     20 C         141.2913  145.5478  158.0863 C.3     1  UNL1        0.0003
     21 C         141.7314  144.7423  159.2727 C.3     1  UNL1        0.0043
     22 C         143.2265  141.2740  159.2079 C.3     1  UNL1        0.0220
     23 C         144.3934  142.0953  158.7456 C.3     1  UNL1        0.0043
     24 C         145.0027  141.8410  157.3988 C.3     1  UNL1        0.0003
     25 C         144.4451  140.7655  156.5142 C.3     1  UNL1        0.0000
     26 C         143.2782  139.9442  156.9766 C.3     1  UNL1        0.0003
     27 C         142.6689  140.1985  158.3235 C.3     1  UNL1        0.0043
     28 C         139.7396  143.3503  164.7560 C.3     1  UNL1        0.1348
     29 C         138.2899  143.0006  164.5947 C.3     1  UNL1        0.1964
     30 F         137.2346  144.0285  164.8772 F       1  UNL1       -0.2339
     31 C         137.8956  141.6231  164.1509 C.3     1  UNL1        0.1027
     32 N         136.7786  141.4436  163.1659 N.3     1  UNL1       -0.3188
     33 H         135.9006  141.7446  163.5889 H       1  UNL1        0.1189
     34 H         136.7105  140.4600  162.9045 H       1  UNL1        0.1189
@<TRIPOS>BOND
     1     1     2    1
     2     2     3    2
     3     3     4    1
     4     4     5    2
     5     5     6    1
     6     6     7    1
     7     7     8    2
     8     7     9   am
     9     9    28    1
    10    28    29    1
    11    29    30    1
    12    29    31    1
    13    31    32    1
    14     9    10    1
    15    10    11   ar
    16    11    12   ar
    17    12    16    1
    18    16    17    1
    19    17    18    1
    20    18    19    1
    21    19    20    1
    22    20    21    1
    23    12    13   ar
    24    13    22    1
    25    22    23    1
    26    23    24    1
    27    24    25    1
    28    25    26    1
    29    26    27    1
    30    13    14   ar
    31    14    15   ar
    32     6     2    1
    33    15    10   ar
    34    15     5    1
    35    21    16    1
    36    27    22    1
    37    32    33    1
    38    32    34    1
@<TRIPOS>MOLECULE
*****
 34 38 0 0 0
SMALL
GASTEIGER

@<TRIPOS>ATOM
      1 C         144.4735  142.8928  164.9048 C.3     1  UNL1        0.0501
      2 C         144.3631  142.8549  163.4094 C.2     1  UNL1        0.0727
      3 N         145.3611  142.2505  162.4666 N.2     1  UNL1       -0.1562
      4 N         144.8501  142.4367  161.0687 N.2     1  UNL1       -0.1521
      5 C         143.5362  143.1561  161.1474 C.2     1  UNL1        0.0954
      6 C         143.2352  143.4145  162.5941 C.3     1  UNL1        0.1563
      7 C         141.9731  144.1261  162.9820 C.2     1  UNL1        0.2401
      8 O         141.6720  144.3846  164.4286 O.2     1  UNL1       -0.2737
      9 N         141.0118  144.5793  161.9233 N.am    1  UNL1       -0.2551
     10 C         141.3128  144.3209  160.4768 C.ar    1  UNL1        0.0548
     11 C         140.3516  144.7741  159.4181 C.ar    1  UNL1        0.0104
     12 C         140.6526  144.5157  157.9716 C.ar    1  UNL1       -0.0252
     13 C         141.9147  143.8041  157.5836 C.ar    1  UNL1       -0.0263
     14 C         142.8760  143.3509  158.6422 C.ar    1  UNL1       -0.0021
     15 C         142.5750  143.6093  160.0888 C.ar    1  UNL1        0.0295
     16 C         139.6914  144.9688  156.9129 C.3     1  UNL1        0.0221
     17 C         138.6858  144.0077  156.3517 C.3     1  UNL1        0.0043
     18 C         137.7246  144.4609  155.2930 C.3     1  UNL1        0.0003
     19 C         137.7691  145.8753  154.7955 C.3     1  UNL1        0.0000
     20 C         138.7747  146.8364  155.3567 C.3     1  UNL1        0.0003
     21 C         139.7358  146.3832  156.4154 C.3     1  UNL1        0.0043
     22 C         142.2158  143.5456  156.1370 C.3     1  UNL1        0.0220
     23 C         142.8392  144.6206  155.2969 C.3     1  UNL1        0.0043
     24 C         143.1402  144.3621  153.8504 C.3     1  UNL1        0.0003
     25 C         142.8178  143.0285  153.2438 C.3     1  UNL1        0.0000
     26 C         142.1944  141.9536  154.0839 C.3     1  UNL1        0.0003
     27 C         141.8934  142.2121  155.5305 C.3     1  UNL1        0.0043
     28 C         139.7496  145.2909  162.3113 C.3     1  UNL1        0.1348
     29 C         138.8045  144.6613  163.2913 C.3     1  UNL1        0.1964
     30 F         138.7769  145.1324  164.7152 F       1  UNL1       -0.2339
     31 C         137.8872  143.5606  162.8475 C.3     1  UNL1        0.1027
     32 N         137.7318  143.2572  161.3866 N.3     1  UNL1       -0.3188
     33 H         137.2874  144.0482  160.9205 H       1  UNL1        0.1189
     34 H         137.1524  142.4256  161.2719 H       1  UNL1        0.1189
@<TRIPOS>BOND
     1     1     2    1
     2     2     3    2
     3     3     4    1
     4     4     5    2
     5     5     6    1
     6     6     7    1
     7     7     8    2
     8     7     9   am
     9     9    28    1
    10    28    29    1
    11    29    30    1
    12    29    31    1
    13    31    32    1
    14     9    10    1
    15    10    11   ar
    16    11    12   ar
    17    12    16    1
    18    16    17    1
    19    17    18    1
    20    18    19    1
    21    19    20    1
    22    20    21    1
    23    12    13   ar
    24    13    22    1
    25    22    23    1
    26    23    24    1
    27    24    25    1
    28    25    26    1
    29    26    27    1
    30    13    14   ar
    31    14    15   ar
    32     6     2    1
    33    15    10   ar
    34    15     5    1
    35    21    16    1
    36    27    22    1
    37    32    33    1
    38    32    34    1
