@<TRIPOS>MOLECULE
*****
 32 34 0 0 0
SMALL
GASTEIGER

@<TRIPOS>ATOM
      1 C         139.9349  138.0353  163.3581 C.ar    1  UNL1        0.1387
      2 C         138.7090  137.6208  164.1164 C.ar    1  UNL1        0.0371
      3 C         138.4753  138.1380  165.5049 C.ar    1  UNL1        0.0078
      4 C         139.4676  139.0698  166.1350 C.ar    1  UNL1        0.0565
      5 C         139.2339  139.5871  167.5235 C.ar    1  UNL1        0.2614
      6 O         138.0080  139.1726  168.2818 O.2     1  UNL1       -0.2670
      7 N         140.2262  140.5189  168.1535 N.ar    1  UNL1       -0.2847
      8 C         141.4523  140.9335  167.3952 C.ar    1  UNL1        0.1318
      9 C         141.6859  140.4162  166.0067 C.ar    1  UNL1        0.0261
     10 C         140.6936  139.4844  165.3766 C.ar    1  UNL1        0.0097
     11 C         140.9272  138.9671  163.9882 C.ar    1  UNL1        0.0371
     12 C         142.9119  140.8307  165.2484 C.ar    1  UNL1        0.0020
     13 C         144.0458  139.8651  165.0702 C.ar    1  UNL1        0.0001
     14 C         145.2718  140.2797  164.3118 C.ar    1  UNL1       -0.0001
     15 C         145.3638  141.6598  163.7316 C.ar    1  UNL1        0.0039
     16 C         144.2299  142.6255  163.9098 C.ar    1  UNL1        0.0714
     17 C         143.0040  142.2110  164.6681 C.ar    1  UNL1        0.0039
     18 C         144.3219  144.0056  163.3296 C.3     1  UNL1        0.4186
     19 F         144.4140  145.3859  162.7494 F       1  UNL1       -0.1659
     20 F         144.1368  144.5929  164.6973 F       1  UNL1       -0.1659
     21 F         144.5071  143.4183  161.9619 F       1  UNL1       -0.1659
     22 C         139.6393  138.2754  160.7881 C.3     1  UNL1        0.2525
     23 O         140.1686  137.5180  161.9696 O.3     1  UNL1       -0.4714
     24 C         142.4445  141.8653  168.0253 C.1     1  UNL1        0.1180
     25 N         143.4369  142.7972  168.6554 N.1     1  UNL1       -0.1893
     26 C         139.9925  141.0362  169.5420 C.3     1  UNL1        0.1413
     27 C         140.5584  140.3017  170.7212 C.3     1  UNL1        0.1623
     28 O         139.7760  139.1928  171.3600 O.3     1  UNL1       -0.3799
     29 H         138.9336  139.0805  170.8925 H       1  UNL1        0.2105
     30 C         141.9067  140.6761  171.2614 C.3     1  UNL1        0.1683
     31 O         142.1735  142.0850  171.7016 O.3     1  UNL1       -0.3794
     32 H         142.1365  142.6762  170.9334 H       1  UNL1        0.2105
@<TRIPOS>BOND
     1    22    23    1
     2    23     1    1
     3     1     2   ar
     4     2     3   ar
     5     3     4   ar
     6     4     5   ar
     7     5     6    2
     8     5     7   ar
     9     7    26    1
    10    26    27    1
    11    27    28    1
    12    27    30    1
    13    30    31    1
    14     7     8   ar
    15     8    24    1
    16    24    25    3
    17     8     9   ar
    18     9    12    1
    19    12    13   ar
    20    13    14   ar
    21    14    15   ar
    22    15    16   ar
    23    16    18    1
    24    18    19    1
    25    18    20    1
    26    18    21    1
    27    16    17   ar
    28     9    10   ar
    29    10    11   ar
    30    11     1   ar
    31    10     4   ar
    32    17    12   ar
    33    28    29    1
    34    31    32    1
@<TRIPOS>MOLECULE
*****
 32 34 0 0 0
SMALL
GASTEIGER

@<TRIPOS>ATOM
      1 C         144.4857  139.9555  164.7107 C.ar    1  UNL1        0.1387
      2 C         145.1792  140.5988  163.5467 C.ar    1  UNL1        0.0371
      3 C         144.6150  141.8460  162.9334 C.ar    1  UNL1        0.0078
      4 C         143.3572  142.4499  163.4842 C.ar    1  UNL1        0.0565
      5 C         142.7930  143.6971  162.8709 C.ar    1  UNL1        0.2614
      6 O         143.4865  144.3405  161.7068 O.2     1  UNL1       -0.2670
      7 N         141.5352  144.3009  163.4216 N.ar    1  UNL1       -0.2847
      8 C         140.8416  143.6575  164.5857 C.ar    1  UNL1        0.1318
      9 C         141.4059  142.4103  165.1990 C.ar    1  UNL1        0.0261
     10 C         142.6637  141.8065  164.6482 C.ar    1  UNL1        0.0097
     11 C         143.2279  140.5593  165.2615 C.ar    1  UNL1        0.0371
     12 C         140.7124  141.7670  166.3631 C.ar    1  UNL1        0.0020
     13 C         140.9687  142.2617  167.7557 C.ar    1  UNL1        0.0001
     14 C         140.2752  141.6183  168.9198 C.ar    1  UNL1       -0.0001
     15 C         139.3252  140.4802  168.6912 C.ar    1  UNL1        0.0039
     16 C         139.0689  139.9854  167.2985 C.ar    1  UNL1        0.0714
     17 C         139.7624  140.6288  166.1345 C.ar    1  UNL1        0.0039
     18 C         138.1189  138.8473  167.0699 C.3     1  UNL1        0.4186
     19 F         137.1690  137.7091  166.8414 F       1  UNL1       -0.1659
     20 F         137.5766  139.0213  168.4575 F       1  UNL1       -0.1659
     21 F         138.6613  138.6733  165.6823 F       1  UNL1       -0.1659
     22 C         144.2743  137.9729  166.3764 C.3     1  UNL1        0.2525
     23 O         145.0499  138.7083  165.3240 O.3     1  UNL1       -0.4714
     24 C         139.5839  144.2614  165.1365 C.1     1  UNL1        0.1180
     25 N         138.3260  144.8652  165.6873 N.1     1  UNL1       -0.1893
     26 C         140.9710  145.5481  162.8083 C.3     1  UNL1        0.1413
     27 C         139.9436  145.4501  161.7198 C.3     1  UNL1        0.1623
     28 O         138.4834  145.4775  162.0619 O.3     1  UNL1       -0.3799
     29 H         138.3780  145.5621  163.0224 H       1  UNL1        0.2105
     30 C         140.3765  145.3246  160.2891 C.3     1  UNL1        0.1683
     31 O         141.7944  145.6280  159.9051 O.3     1  UNL1       -0.3794
     32 H         141.9730  146.5709  160.0466 H       1  UNL1        0.2105
@<TRIPOS>BOND
     1    22    23    1
     2    23     1    1
     3     1     2   ar
     4     2     3   ar
     5     3     4   ar
     6     4     5   ar
     7     5     6    2
     8     5     7   ar
     9     7    26    1
    10    26    27    1
    11    27    28    1
    12    27    30    1
    13    30    31    1
    14     7     8   ar
    15     8    24    1
    16    24    25    3
    17     8     9   ar
    18     9    12    1
    19    12    13   ar
    20    13    14   ar
    21    14    15   ar
    22    15    16   ar
    23    16    18    1
    24    18    19    1
    25    18    20    1
    26    18    21    1
    27    16    17   ar
    28     9    10   ar
    29    10    11   ar
    30    11     1   ar
    31    10     4   ar
    32    17    12   ar
    33    28    29    1
    34    31    32    1
@<TRIPOS>MOLECULE
*****
 32 34 0 0 0
SMALL
GASTEIGER

@<TRIPOS>ATOM
      1 C         144.0564  142.0324  164.0633 C.ar    1  UNL1        0.1387
      2 C         144.5444  142.9571  165.1388 C.ar    1  UNL1        0.0371
      3 C         143.8345  143.0129  166.4590 C.ar    1  UNL1        0.0078
      4 C         142.6365  142.1440  166.7037 C.ar    1  UNL1        0.0565
      5 C         141.9266  142.1998  168.0239 C.ar    1  UNL1        0.2614
      6 O         142.4146  143.1245  169.0994 O.2     1  UNL1       -0.2670
      7 N         140.7287  141.3309  168.2685 N.ar    1  UNL1       -0.2847
      8 C         140.2406  140.4062  167.1930 C.ar    1  UNL1        0.1318
      9 C         140.9505  140.3504  165.8728 C.ar    1  UNL1        0.0261
     10 C         142.1485  141.2193  165.6282 C.ar    1  UNL1        0.0097
     11 C         142.8585  141.1635  164.3080 C.ar    1  UNL1        0.0371
     12 C         140.4626  139.4257  164.7973 C.ar    1  UNL1        0.0020
     13 C         140.9901  138.0238  164.7172 C.ar    1  UNL1        0.0001
     14 C         140.5021  137.0991  163.6416 C.ar    1  UNL1       -0.0001
     15 C         139.4865  137.5763  162.6462 C.ar    1  UNL1        0.0039
     16 C         138.9589  138.9781  162.7264 C.ar    1  UNL1        0.0714
     17 C         139.4469  139.9028  163.8019 C.ar    1  UNL1        0.0039
     18 C         137.9433  139.4553  161.7310 C.3     1  UNL1        0.4186
     19 F         136.9277  139.9325  160.7355 F       1  UNL1       -0.1659
     20 F         138.5164  138.5272  160.7013 F       1  UNL1       -0.1659
     21 F         137.3703  140.3834  162.7606 F       1  UNL1       -0.1659
     22 C         144.5473  140.8130  161.8224 C.3     1  UNL1        0.2525
     23 O         144.7664  141.9766  162.7432 O.3     1  UNL1       -0.4714
     24 C         139.0427  139.5373  167.4377 C.1     1  UNL1        0.1180
     25 N         137.8447  138.6683  167.6824 N.1     1  UNL1       -0.1893
     26 C         140.0187  141.3867  169.5887 C.3     1  UNL1        0.1413
     27 C         140.4938  140.5400  170.7322 C.3     1  UNL1        0.1623
     28 O         139.6432  139.4109  171.2334 O.3     1  UNL1       -0.3799
     29 H         138.8259  139.3660  170.7129 H       1  UNL1        0.2105
     30 C         141.8197  140.8226  171.3743 C.3     1  UNL1        0.1683
     31 O         142.1162  142.1912  171.9118 O.3     1  UNL1       -0.3794
     32 H         142.1524  142.8255  171.1788 H       1  UNL1        0.2105
@<TRIPOS>BOND
     1    22    23    1
     2    23     1    1
     3     1     2   ar
     4     2     3   ar
     5     3     4   ar
     6     4     5   ar
     7     5     6    2
     8     5     7   ar
     9     7    26    1
    10    26    27    1
    11    27    28    1
    12    27    30    1
    13    30    31    1
    14     7     8   ar
    15     8    24    1
    16    24    25    3
    17     8     9   ar
    18     9    12    1
    19    12    13   ar
    20    13    14   ar
    21    14    15   ar
    22    15    16   ar
    23    16    18    1
    24    18    19    1
    25    18    20    1
    26    18    21    1
    27    16    17   ar
    28     9    10   ar
    29    10    11   ar
    30    11     1   ar
    31    10     4   ar
    32    17    12   ar
    33    28    29    1
    34    31    32    1
@<TRIPOS>MOLECULE
*****
 32 34 0 0 0
SMALL
GASTEIGER

@<TRIPOS>ATOM
      1 C         144.4353  140.0713  164.7362 C.ar    1  UNL1        0.1387
      2 C         145.3014  140.9838  163.9194 C.ar    1  UNL1        0.0371
      3 C         144.7500  142.2813  163.4069 C.ar    1  UNL1        0.0078
      4 C         143.3326  142.6662  163.7112 C.ar    1  UNL1        0.0565
      5 C         142.7812  143.9637  163.1988 C.ar    1  UNL1        0.2614
      6 O         143.6473  144.8762  162.3820 O.2     1  UNL1       -0.2670
      7 N         141.3637  144.3486  163.5031 N.ar    1  UNL1       -0.2847
      8 C         140.4976  143.4360  164.3199 C.ar    1  UNL1        0.1318
      9 C         141.0490  142.1386  164.8324 C.ar    1  UNL1        0.0261
     10 C         142.4665  141.7537  164.5280 C.ar    1  UNL1        0.0097
     11 C         143.0179  140.4562  165.0405 C.ar    1  UNL1        0.0371
     12 C         140.1829  141.2261  165.6491 C.ar    1  UNL1        0.0020
     13 C         139.0991  140.4285  164.9863 C.ar    1  UNL1        0.0001
     14 C         138.2331  139.5159  165.8031 C.ar    1  UNL1       -0.0001
     15 C         138.4507  139.4010  167.2828 C.ar    1  UNL1        0.0039
     16 C         139.5345  140.1985  167.9456 C.ar    1  UNL1        0.0714
     17 C         140.4005  141.1111  167.1288 C.ar    1  UNL1        0.0039
     18 C         139.7521  140.0836  169.4253 C.3     1  UNL1        0.4186
     19 F         139.9698  139.9687  170.9050 F       1  UNL1       -0.1659
     20 F         138.3392  140.5250  169.6674 F       1  UNL1       -0.1659
     21 F         141.1651  139.6422  169.1831 F       1  UNL1       -0.1659
     22 C         144.2636  138.0264  166.3295 C.3     1  UNL1        0.2525
     23 O         144.9867  138.7739  165.2486 O.3     1  UNL1       -0.4714
     24 C         139.0801  143.8210  164.6242 C.1     1  UNL1        0.1180
     25 N         137.6626  144.2059  164.9285 N.1     1  UNL1       -0.1893
     26 C         140.8124  145.6460  162.9906 C.3     1  UNL1        0.1413
     27 C         140.2145  145.7163  161.6166 C.3     1  UNL1        0.1623
     28 O         139.0491  146.6227  161.3513 O.3     1  UNL1       -0.3799
     29 H         138.8086  147.0876  162.1680 H       1  UNL1        0.2105
     30 C         140.7821  144.8803  160.5081 C.3     1  UNL1        0.1683
     31 O         142.0431  145.3071  159.8170 O.3     1  UNL1       -0.3794
     32 H         141.8829  146.1320  159.3325 H       1  UNL1        0.2105
@<TRIPOS>BOND
     1    22    23    1
     2    23     1    1
     3     1     2   ar
     4     2     3   ar
     5     3     4   ar
     6     4     5   ar
     7     5     6    2
     8     5     7   ar
     9     7    26    1
    10    26    27    1
    11    27    28    1
    12    27    30    1
    13    30    31    1
    14     7     8   ar
    15     8    24    1
    16    24    25    3
    17     8     9   ar
    18     9    12    1
    19    12    13   ar
    20    13    14   ar
    21    14    15   ar
    22    15    16   ar
    23    16    18    1
    24    18    19    1
    25    18    20    1
    26    18    21    1
    27    16    17   ar
    28     9    10   ar
    29    10    11   ar
    30    11     1   ar
    31    10     4   ar
    32    17    12   ar
    33    28    29    1
    34    31    32    1
@<TRIPOS>MOLECULE
*****
 32 34 0 0 0
SMALL
GASTEIGER

@<TRIPOS>ATOM
      1 C         143.1846  143.4503  164.0614 C.ar    1  UNL1        0.1387
      2 C         144.1741  143.5797  165.1812 C.ar    1  UNL1        0.0371
      3 C         143.9341  142.8688  166.4801 C.ar    1  UNL1        0.0078
      4 C         142.7045  142.0286  166.6592 C.ar    1  UNL1        0.0565
      5 C         142.4645  141.3177  167.9580 C.ar    1  UNL1        0.2614
      6 O         143.4540  141.4471  169.0778 O.2     1  UNL1       -0.2670
      7 N         141.2349  140.4775  168.1371 N.ar    1  UNL1       -0.2847
      8 C         140.2453  140.3481  167.0172 C.ar    1  UNL1        0.1318
      9 C         140.4853  141.0589  165.7183 C.ar    1  UNL1        0.0261
     10 C         141.7150  141.8992  165.5393 C.ar    1  UNL1        0.0097
     11 C         141.9550  142.6101  164.2405 C.ar    1  UNL1        0.0371
     12 C         139.4958  140.9296  164.5985 C.ar    1  UNL1        0.0020
     13 C         138.3304  141.8702  164.5151 C.ar    1  UNL1        0.0001
     14 C         137.3408  141.7408  163.3952 C.ar    1  UNL1       -0.0001
     15 C         137.5167  140.6708  162.3588 C.ar    1  UNL1        0.0039
     16 C         138.6822  139.7301  162.4423 C.ar    1  UNL1        0.0714
     17 C         139.6717  139.8595  163.5621 C.ar    1  UNL1        0.0039
     18 C         138.8581  138.6601  161.4059 C.3     1  UNL1        0.4186
     19 F         139.0340  137.5901  160.3695 F       1  UNL1       -0.1659
     20 F         140.1145  139.3273  160.9303 F       1  UNL1       -0.1659
     21 F         137.6016  137.9930  161.8815 F       1  UNL1       -0.1659
     22 C         144.0467  143.4290  161.6106 C.3     1  UNL1        0.2525
     23 O         143.4247  144.1611  162.7625 O.3     1  UNL1       -0.4714
     24 C         139.0157  139.5079  167.1963 C.1     1  UNL1        0.1180
     25 N         137.7860  138.6676  167.3753 N.1     1  UNL1       -0.1893
     26 C         140.9949  139.7666  169.4359 C.3     1  UNL1        0.1413
     27 C         140.1629  140.4145  170.5029 C.3     1  UNL1        0.1623
     28 O         138.8122  139.8574  170.8424 O.3     1  UNL1       -0.3799
     29 H         138.6313  139.0851  170.2840 H       1  UNL1        0.2105
     30 C         140.6817  141.6194  171.2302 C.3     1  UNL1        0.1683
     31 O         142.0812  141.6247  171.7699 O.3     1  UNL1       -0.3794
     32 H         142.1581  140.9636  172.4755 H       1  UNL1        0.2105
@<TRIPOS>BOND
     1    22    23    1
     2    23     1    1
     3     1     2   ar
     4     2     3   ar
     5     3     4   ar
     6     4     5   ar
     7     5     6    2
     8     5     7   ar
     9     7    26    1
    10    26    27    1
    11    27    28    1
    12    27    30    1
    13    30    31    1
    14     7     8   ar
    15     8    24    1
    16    24    25    3
    17     8     9   ar
    18     9    12    1
    19    12    13   ar
    20    13    14   ar
    21    14    15   ar
    22    15    16   ar
    23    16    18    1
    24    18    19    1
    25    18    20    1
    26    18    21    1
    27    16    17   ar
    28     9    10   ar
    29    10    11   ar
    30    11     1   ar
    31    10     4   ar
    32    17    12   ar
    33    28    29    1
    34    31    32    1
@<TRIPOS>MOLECULE
*****
 32 34 0 0 0
SMALL
GASTEIGER

@<TRIPOS>ATOM
      1 C         138.9529  138.1911  165.1077 C.ar    1  UNL1        0.1387
      2 C         138.8789  138.1344  163.6107 C.ar    1  UNL1        0.0371
      3 C         139.7635  139.0179  162.7819 C.ar    1  UNL1        0.0078
      4 C         140.7222  139.9582  163.4503 C.ar    1  UNL1        0.0565
      5 C         141.6069  140.8417  162.6216 C.ar    1  UNL1        0.2614
      6 O         141.5328  140.7850  161.1245 O.2     1  UNL1       -0.2670
      7 N         142.5656  141.7820  163.2899 N.ar    1  UNL1       -0.2847
      8 C         142.6397  141.8387  164.7871 C.ar    1  UNL1        0.1318
      9 C         141.7551  140.9552  165.6158 C.ar    1  UNL1        0.0261
     10 C         140.7963  140.0149  164.9474 C.ar    1  UNL1        0.0097
     11 C         139.9117  139.1314  165.7761 C.ar    1  UNL1        0.0371
     12 C         141.8291  141.0119  167.1129 C.ar    1  UNL1        0.0020
     13 C         142.7440  140.0827  167.8543 C.ar    1  UNL1        0.0001
     14 C         142.8180  140.1395  169.3514 C.ar    1  UNL1       -0.0001
     15 C         141.9772  141.1254  170.1071 C.ar    1  UNL1        0.0039
     16 C         141.0624  142.0545  169.3657 C.ar    1  UNL1        0.0714
     17 C         140.9883  141.9978  167.8686 C.ar    1  UNL1        0.0039
     18 C         140.2216  143.0404  170.1213 C.3     1  UNL1        0.4186
     19 F         139.3808  144.0264  170.8770 F       1  UNL1       -0.1659
     20 F         141.2947  144.0765  169.9636 F       1  UNL1       -0.1659
     21 F         139.1485  142.0043  170.2790 F       1  UNL1       -0.1659
     22 C         137.3440  137.8720  167.1225 C.3     1  UNL1        0.2525
     23 O         138.0683  137.3076  165.9364 O.3     1  UNL1       -0.4714
     24 C         143.5984  142.7790  165.4554 C.1     1  UNL1        0.1180
     25 N         144.5572  143.7193  166.1238 N.1     1  UNL1       -0.1893
     26 C         143.4503  142.6655  162.4612 C.3     1  UNL1        0.1413
     27 C         143.0493  144.0852  162.1892 C.3     1  UNL1        0.1623
     28 O         143.9114  145.2136  162.6721 O.3     1  UNL1       -0.3799
     29 H         144.6830  144.8547  163.1377 H       1  UNL1        0.2105
     30 C         141.7862  144.3762  161.4343 C.3     1  UNL1        0.1683
     31 O         141.7851  145.4046  160.3424 O.3     1  UNL1       -0.3794
     32 H         141.9521  146.2809  160.7234 H       1  UNL1        0.2105
@<TRIPOS>BOND
     1    22    23    1
     2    23     1    1
     3     1     2   ar
     4     2     3   ar
     5     3     4   ar
     6     4     5   ar
     7     5     6    2
     8     5     7   ar
     9     7    26    1
    10    26    27    1
    11    27    28    1
    12    27    30    1
    13    30    31    1
    14     7     8   ar
    15     8    24    1
    16    24    25    3
    17     8     9   ar
    18     9    12    1
    19    12    13   ar
    20    13    14   ar
    21    14    15   ar
    22    15    16   ar
    23    16    18    1
    24    18    19    1
    25    18    20    1
    26    18    21    1
    27    16    17   ar
    28     9    10   ar
    29    10    11   ar
    30    11     1   ar
    31    10     4   ar
    32    17    12   ar
    33    28    29    1
    34    31    32    1
@<TRIPOS>MOLECULE
*****
 32 34 0 0 0
SMALL
GASTEIGER

@<TRIPOS>ATOM
      1 C         138.7039  143.1471  163.9561 C.ar    1  UNL1        0.1387
      2 C         138.5295  144.1659  165.0431 C.ar    1  UNL1        0.0371
      3 C         139.2416  143.9951  166.3522 C.ar    1  UNL1        0.0078
      4 C         140.1280  142.8057  166.5743 C.ar    1  UNL1        0.0565
      5 C         140.8400  142.6349  167.8835 C.ar    1  UNL1        0.2614
      6 O         140.6657  143.6536  168.9705 O.2     1  UNL1       -0.2670
      7 N         141.7264  141.4454  168.1055 N.ar    1  UNL1       -0.2847
      8 C         141.9008  140.4266  167.0185 C.ar    1  UNL1        0.1318
      9 C         141.1888  140.5974  165.7093 C.ar    1  UNL1        0.0261
     10 C         140.3023  141.7869  165.4873 C.ar    1  UNL1        0.0097
     11 C         139.5903  141.9577  164.1781 C.ar    1  UNL1        0.0371
     12 C         141.3631  139.5786  164.6223 C.ar    1  UNL1        0.0020
     13 C         140.4800  138.3668  164.5813 C.ar    1  UNL1        0.0001
     14 C         140.6544  137.3481  163.4942 C.ar    1  UNL1       -0.0001
     15 C         141.7119  137.5411  162.4481 C.ar    1  UNL1        0.0039
     16 C         142.5950  138.7529  162.4890 C.ar    1  UNL1        0.0714
     17 C         142.4207  139.7716  163.5761 C.ar    1  UNL1        0.0039
     18 C         143.6525  138.9459  161.4429 C.3     1  UNL1        0.4186
     19 F         144.7100  139.1389  160.3967 F       1  UNL1       -0.1659
     20 F         144.0534  137.5073  161.5827 F       1  UNL1       -0.1659
     21 F         143.2516  140.3845  161.3031 F       1  UNL1       -0.1659
     22 C         138.1235  142.2723  161.5796 C.3     1  UNL1        0.2525
     23 O         137.9918  143.3179  162.6469 O.3     1  UNL1       -0.4714
     24 C         142.7872  139.2371  167.2405 C.1     1  UNL1        0.1180
     25 N         143.6737  138.0476  167.4627 N.1     1  UNL1       -0.1893
     26 C         142.4385  141.2747  169.4147 C.3     1  UNL1        0.1413
     27 C         141.7441  140.6073  170.5647 C.3     1  UNL1        0.1623
     28 O         142.3263  140.6932  171.9444 O.3     1  UNL1       -0.3799
     29 H         143.1457  141.2117  171.9178 H       1  UNL1        0.2105
     30 C         140.4673  139.8542  170.3350 C.3     1  UNL1        0.1683
     31 O         139.7034  139.2998  171.5007 O.3     1  UNL1       -0.3794
     32 H         140.2270  138.6048  171.9293 H       1  UNL1        0.2105
@<TRIPOS>BOND
     1    22    23    1
     2    23     1    1
     3     1     2   ar
     4     2     3   ar
     5     3     4   ar
     6     4     5   ar
     7     5     6    2
     8     5     7   ar
     9     7    26    1
    10    26    27    1
    11    27    28    1
    12    27    30    1
    13    30    31    1
    14     7     8   ar
    15     8    24    1
    16    24    25    3
    17     8     9   ar
    18     9    12    1
    19    12    13   ar
    20    13    14   ar
    21    14    15   ar
    22    15    16   ar
    23    16    18    1
    24    18    19    1
    25    18    20    1
    26    18    21    1
    27    16    17   ar
    28     9    10   ar
    29    10    11   ar
    30    11     1   ar
    31    10     4   ar
    32    17    12   ar
    33    28    29    1
    34    31    32    1
@<TRIPOS>MOLECULE
*****
 32 34 0 0 0
SMALL
GASTEIGER

@<TRIPOS>ATOM
      1 C         138.7460  139.2156  166.1855 C.ar    1  UNL1        0.1387
      2 C         138.4987  138.8931  164.7416 C.ar    1  UNL1        0.0371
      3 C         139.3159  139.5579  163.6739 C.ar    1  UNL1        0.0078
      4 C         140.3805  140.5454  164.0500 C.ar    1  UNL1        0.0565
      5 C         141.1978  141.2103  162.9823 C.ar    1  UNL1        0.2614
      6 O         140.9504  140.8877  161.5385 O.2     1  UNL1       -0.2670
      7 N         142.2623  142.1978  163.3585 N.ar    1  UNL1       -0.2847
      8 C         142.5097  142.5204  164.8024 C.ar    1  UNL1        0.1318
      9 C         141.6925  141.8555  165.8701 C.ar    1  UNL1        0.0261
     10 C         140.6278  140.8680  165.4939 C.ar    1  UNL1        0.0097
     11 C         139.8106  140.2031  166.5616 C.ar    1  UNL1        0.0371
     12 C         141.9398  142.1781  167.3139 C.ar    1  UNL1        0.0020
     13 C         143.3007  141.9649  167.9076 C.ar    1  UNL1        0.0001
     14 C         143.5480  142.2875  169.3515 C.ar    1  UNL1       -0.0001
     15 C         142.4344  142.8233  170.2017 C.ar    1  UNL1        0.0039
     16 C         141.0735  143.0366  169.6080 C.ar    1  UNL1        0.0714
     17 C         140.8262  142.7140  168.1641 C.ar    1  UNL1        0.0039
     18 C         139.9599  143.5724  170.4581 C.3     1  UNL1        0.4186
     19 F         138.8463  144.1082  171.3083 F       1  UNL1       -0.1659
     20 F         139.4395  142.1794  170.6544 F       1  UNL1       -0.1659
     21 F         140.4804  144.9654  170.2619 F       1  UNL1       -0.1659
     22 C         137.3106  137.2082  166.9977 C.3     1  UNL1        0.2525
     23 O         137.9287  138.5508  167.2532 O.3     1  UNL1       -0.4714
     24 C         143.5743  143.5079  165.1785 C.1     1  UNL1        0.1180
     25 N         144.6389  144.4954  165.5546 N.1     1  UNL1       -0.1893
     26 C         143.0796  142.8626  162.2907 C.3     1  UNL1        0.1413
     27 C         144.2950  142.1770  161.7404 C.3     1  UNL1        0.1623
     28 O         144.6924  142.3890  160.3096 O.3     1  UNL1       -0.3799
     29 H         144.0623  142.9920  159.8850 H       1  UNL1        0.2105
     30 C         145.1129  141.2793  162.6208 C.3     1  UNL1        0.1683
     31 O         146.3735  141.7927  163.2510 O.3     1  UNL1       -0.3794
     32 H         147.0271  141.9812  162.5595 H       1  UNL1        0.2105
@<TRIPOS>BOND
     1    22    23    1
     2    23     1    1
     3     1     2   ar
     4     2     3   ar
     5     3     4   ar
     6     4     5   ar
     7     5     6    2
     8     5     7   ar
     9     7    26    1
    10    26    27    1
    11    27    28    1
    12    27    30    1
    13    30    31    1
    14     7     8   ar
    15     8    24    1
    16    24    25    3
    17     8     9   ar
    18     9    12    1
    19    12    13   ar
    20    13    14   ar
    21    14    15   ar
    22    15    16   ar
    23    16    18    1
    24    18    19    1
    25    18    20    1
    26    18    21    1
    27    16    17   ar
    28     9    10   ar
    29    10    11   ar
    30    11     1   ar
    31    10     4   ar
    32    17    12   ar
    33    28    29    1
    34    31    32    1
@<TRIPOS>MOLECULE
*****
 32 34 0 0 0
SMALL
GASTEIGER

@<TRIPOS>ATOM
      1 C         140.0071  139.6920  166.9158 C.ar    1  UNL1        0.1387
      2 C         138.7435  138.9495  166.5968 C.ar    1  UNL1        0.0371
      3 C         138.4452  138.5500  165.1821 C.ar    1  UNL1        0.0078
      4 C         139.4105  138.8929  164.0865 C.ar    1  UNL1        0.0565
      5 C         139.1122  138.4933  162.6718 C.ar    1  UNL1        0.2614
      6 O         137.8485  137.7508  162.3527 O.2     1  UNL1       -0.2670
      7 N         140.0775  138.8362  161.5761 N.ar    1  UNL1       -0.2847
      8 C         141.3413  139.5787  161.8951 C.ar    1  UNL1        0.1318
      9 C         141.6396  139.9783  163.3098 C.ar    1  UNL1        0.0261
     10 C         140.6742  139.6353  164.4055 C.ar    1  UNL1        0.0097
     11 C         140.9725  140.0349  165.8202 C.ar    1  UNL1        0.0371
     12 C         142.9032  140.7208  163.6289 C.ar    1  UNL1        0.0020
     13 C         144.2060  139.9822  163.7139 C.ar    1  UNL1        0.0001
     14 C         145.4697  140.7247  164.0330 C.ar    1  UNL1       -0.0001
     15 C         145.4306  142.2058  164.2670 C.ar    1  UNL1        0.0039
     16 C         144.1278  142.9444  164.1819 C.ar    1  UNL1        0.0714
     17 C         142.8642  142.2019  163.8629 C.ar    1  UNL1        0.0039
     18 C         144.0887  144.4255  164.4159 C.3     1  UNL1        0.4186
     19 F         144.0495  145.9067  164.6499 F       1  UNL1       -0.1659
     20 F         143.3133  144.6059  163.1446 F       1  UNL1       -0.1659
     21 F         144.8641  144.2451  165.6872 F       1  UNL1       -0.1659
     22 C         141.6686  139.8480  168.9071 C.3     1  UNL1        0.2525
     23 O         140.3054  140.0916  168.3305 O.3     1  UNL1       -0.4714
     24 C         142.3066  139.9216  160.7995 C.1     1  UNL1        0.1180
     25 N         143.2720  140.2645  159.7038 N.1     1  UNL1       -0.1893
     26 C         139.7792  138.4366  160.1614 C.3     1  UNL1        0.1413
     27 C         138.9196  139.3134  159.2998 C.3     1  UNL1        0.1623
     28 O         138.9519  139.1621  157.8078 O.3     1  UNL1       -0.3799
     29 H         139.5755  138.4590  157.5676 H       1  UNL1        0.2105
     30 C         138.0276  140.3415  159.9303 C.3     1  UNL1        0.1683
     31 O         136.7599  139.9183  160.6111 O.3     1  UNL1       -0.3794
     32 H         136.1468  139.5523  159.9545 H       1  UNL1        0.2105
@<TRIPOS>BOND
     1    22    23    1
     2    23     1    1
     3     1     2   ar
     4     2     3   ar
     5     3     4   ar
     6     4     5   ar
     7     5     6    2
     8     5     7   ar
     9     7    26    1
    10    26    27    1
    11    27    28    1
    12    27    30    1
    13    30    31    1
    14     7     8   ar
    15     8    24    1
    16    24    25    3
    17     8     9   ar
    18     9    12    1
    19    12    13   ar
    20    13    14   ar
    21    14    15   ar
    22    15    16   ar
    23    16    18    1
    24    18    19    1
    25    18    20    1
    26    18    21    1
    27    16    17   ar
    28     9    10   ar
    29    10    11   ar
    30    11     1   ar
    31    10     4   ar
    32    17    12   ar
    33    28    29    1
    34    31    32    1
