@<TRIPOS>MOLECULE
*****
 32 34 0 0 0
SMALL
GASTEIGER

@<TRIPOS>ATOM
      1 C         138.7455  140.2850  164.2143 C.ar    1  UNL1        0.0859
      2 C         138.1368  139.5320  165.3600 C.ar    1  UNL1        0.1060
      3 N         138.9191  139.3280  166.6235 N.ar    1  UNL1       -0.2288
      4 C         140.3100  139.8770  166.7413 C.ar    1  UNL1        0.1345
      5 C         140.9187  140.6299  165.5957 C.ar    1  UNL1        0.0492
      6 C         140.1364  140.8339  164.3322 C.ar    1  UNL1        0.0570
      7 C         137.4278  139.8084  160.5013 C.3     1  UNL1        0.1109
      8 N         138.2100  139.6044  161.7648 N.am    1  UNL1       -0.2991
      9 C         137.9632  140.4890  162.9508 C.2     1  UNL1        0.2486
     10 O         136.9342  141.5775  162.8733 O.2     1  UNL1       -0.2700
     11 H         138.8854  138.8899  161.8157 H       1  UNL1        0.1498
     12 N         141.0923  139.6730  168.0048 N.pl3   1  UNL1       -0.2833
     13 H         141.2615  138.7619  168.3374 H       1  UNL1        0.1550
     14 C         141.6168  140.8570  168.7617 C.ar    1  UNL1        0.1329
     15 C         140.7125  142.0155  169.0622 C.ar    1  UNL1        0.0302
     16 C         141.2370  143.1996  169.8191 C.ar    1  UNL1       -0.0175
     17 C         140.3327  144.3581  170.1197 C.3     1  UNL1        0.0312
     18 C         142.6656  143.2253  170.2754 C.ar    1  UNL1        0.0165
     19 C         143.5699  142.0668  169.9749 C.ar    1  UNL1        0.1000
     20 N         143.0454  140.8827  169.2180 N.ar    1  UNL1       -0.2291
     21 N         140.7452  141.5868  163.1865 N.pl3   1  UNL1       -0.3113
     22 H         140.5361  141.3270  162.2602 H       1  UNL1        0.1523
     23 C         141.6724  142.7356  163.4521 C.ar    1  UNL1        0.0656
     24 C         143.1352  142.4841  163.6687 C.ar    1  UNL1        0.0159
     25 C         144.0625  143.6329  163.9344 C.ar    1  UNL1        0.0014
     26 C         143.5268  145.0331  163.9834 C.ar    1  UNL1        0.0014
     27 C         142.0640  145.2846  163.7669 C.ar    1  UNL1        0.0196
     28 C         141.1368  144.1359  163.5012 C.ar    1  UNL1        0.1190
     29 S         139.6740  144.3874  163.2846 S.O2    1  UNL1        0.0116
     30 C         138.2112  144.6388  163.0681 C.3     1  UNL1        0.1816
     31 O         139.4386  144.2913  164.7629 O.2     1  UNL1       -0.1685
     32 O         139.9094  144.4834  161.8063 O.2     1  UNL1       -0.1685
@<TRIPOS>BOND
     1     7     8    1
     2     8     9   am
     3     9    10    2
     4     9     1    1
     5     1     2   ar
     6     2     3   ar
     7     3     4   ar
     8     4    12    1
     9    12    14    1
    10    14    15   ar
    11    15    16   ar
    12    16    17    1
    13    16    18   ar
    14    18    19   ar
    15    19    20   ar
    16     4     5   ar
    17     5     6   ar
    18     6    21    1
    19    21    23    1
    20    23    24   ar
    21    24    25   ar
    22    25    26   ar
    23    26    27   ar
    24    27    28   ar
    25    28    29    1
    26    29    30    1
    27    29    31    2
    28    29    32    2
    29     6     1   ar
    30    28    23   ar
    31    20    14   ar
    32     8    11    1
    33    12    13    1
    34    21    22    1
@<TRIPOS>MOLECULE
*****
 32 34 0 0 0
SMALL
GASTEIGER

@<TRIPOS>ATOM
      1 C         138.4241  138.9666  162.8281 C.ar    1  UNL1        0.0859
      2 C         138.8166  137.7194  163.5632 C.ar    1  UNL1        0.1060
      3 N         138.8019  137.6967  165.0629 N.ar    1  UNL1       -0.2288
      4 C         138.3948  138.9213  165.8276 C.ar    1  UNL1        0.1345
      5 C         138.0023  140.1684  165.0925 C.ar    1  UNL1        0.0492
      6 C         138.0170  140.1911  163.5927 C.ar    1  UNL1        0.0570
      7 C         139.6083  138.4144  159.0807 C.3     1  UNL1        0.1109
      8 N         139.5936  138.3917  160.5805 N.am    1  UNL1       -0.2991
      9 C         138.4388  138.9892  161.3283 C.2     1  UNL1        0.2486
     10 O         137.2987  139.6094  160.5764 O.2     1  UNL1       -0.2700
     11 H         140.3420  137.9847  161.0740 H       1  UNL1        0.1498
     12 N         138.3801  138.8986  167.3273 N.pl3   1  UNL1       -0.2833
     13 H         137.7627  138.2983  167.8046 H       1  UNL1        0.1550
     14 C         139.3061  139.7905  168.1000 C.ar    1  UNL1        0.1329
     15 C         140.4708  140.4387  167.4120 C.ar    1  UNL1        0.0302
     16 C         141.3968  141.3306  168.1846 C.ar    1  UNL1       -0.0175
     17 C         142.5615  141.9788  167.4966 C.3     1  UNL1        0.0312
     18 C         141.1581  141.5743  169.6453 C.ar    1  UNL1        0.0165
     19 C         139.9935  140.9261  170.3334 C.ar    1  UNL1        0.1000
     20 N         139.0674  140.0342  169.5607 N.ar    1  UNL1       -0.2291
     21 N         137.6244  141.4384  162.8576 N.pl3   1  UNL1       -0.3113
     22 H         136.9172  141.4046  162.1735 H       1  UNL1        0.1523
     23 C         138.3094  142.7370  163.1648 C.ar    1  UNL1        0.0656
     24 C         138.0481  143.4328  164.4677 C.ar    1  UNL1        0.0159
     25 C         138.7331  144.7315  164.7749 C.ar    1  UNL1        0.0014
     26 C         139.6793  145.3343  163.7792 C.ar    1  UNL1        0.0014
     27 C         139.9405  144.6384  162.4763 C.ar    1  UNL1        0.0196
     28 C         139.2556  143.3398  162.1691 C.ar    1  UNL1        0.1190
     29 S         139.5168  142.6440  160.8662 S.O2    1  UNL1        0.0116
     30 C         139.7780  141.9481  159.5633 C.3     1  UNL1        0.1816
     31 O         138.1886  143.1123  160.3498 O.2     1  UNL1       -0.1685
     32 O         140.8449  142.1756  161.3826 O.2     1  UNL1       -0.1685
@<TRIPOS>BOND
     1     7     8    1
     2     8     9   am
     3     9    10    2
     4     9     1    1
     5     1     2   ar
     6     2     3   ar
     7     3     4   ar
     8     4    12    1
     9    12    14    1
    10    14    15   ar
    11    15    16   ar
    12    16    17    1
    13    16    18   ar
    14    18    19   ar
    15    19    20   ar
    16     4     5   ar
    17     5     6   ar
    18     6    21    1
    19    21    23    1
    20    23    24   ar
    21    24    25   ar
    22    25    26   ar
    23    26    27   ar
    24    27    28   ar
    25    28    29    1
    26    29    30    1
    27    29    31    2
    28    29    32    2
    29     6     1   ar
    30    28    23   ar
    31    20    14   ar
    32     8    11    1
    33    12    13    1
    34    21    22    1
@<TRIPOS>MOLECULE
*****
 32 34 0 0 0
SMALL
GASTEIGER

@<TRIPOS>ATOM
      1 C         138.5951  140.5495  159.5126 C.ar    1  UNL1        0.0859
      2 C         139.1030  139.1472  159.3531 C.ar    1  UNL1        0.1060
      3 N         139.6784  138.4193  160.5317 N.ar    1  UNL1       -0.2288
      4 C         139.7459  139.0937  161.8698 C.ar    1  UNL1        0.1345
      5 C         139.2380  140.4960  162.0293 C.ar    1  UNL1        0.0492
      6 C         138.6626  141.2239  160.8507 C.ar    1  UNL1        0.0570
      7 C         136.4684  141.3138  156.2503 C.3     1  UNL1        0.1109
      8 N         137.0438  140.5859  157.4289 N.am    1  UNL1       -0.2991
      9 C         138.0197  141.2774  158.3340 C.2     1  UNL1        0.2486
     10 O         138.4202  142.6968  158.0606 O.2     1  UNL1       -0.2700
     11 H         136.7810  139.6542  157.6083 H       1  UNL1        0.1498
     12 N         140.3213  138.3658  163.0484 N.pl3   1  UNL1       -0.2833
     13 H         140.9318  137.6063  162.9078 H       1  UNL1        0.1550
     14 C         139.9667  138.7951  164.4412 C.ar    1  UNL1        0.1329
     15 C         138.7863  138.1842  165.1367 C.ar    1  UNL1        0.0302
     16 C         138.4317  138.6134  166.5294 C.ar    1  UNL1       -0.0175
     17 C         137.2513  138.0025  167.2249 C.3     1  UNL1        0.0312
     18 C         139.2573  139.6536  167.2268 C.ar    1  UNL1        0.0165
     19 C         140.4376  140.2645  166.5314 C.ar    1  UNL1        0.1000
     20 N         140.7923  139.8353  165.1386 N.ar    1  UNL1       -0.2291
     21 N         138.1547  142.6263  161.0103 N.pl3   1  UNL1       -0.3113
     22 H         137.6302  143.0448  160.2899 H       1  UNL1        0.1523
     23 C         138.4459  143.3910  162.2674 C.ar    1  UNL1        0.0656
     24 C         137.5175  143.2866  163.4409 C.ar    1  UNL1        0.0159
     25 C         137.8087  144.0514  164.6980 C.ar    1  UNL1        0.0014
     26 C         139.0284  144.9204  164.7817 C.ar    1  UNL1        0.0014
     27 C         139.9569  145.0248  163.6082 C.ar    1  UNL1        0.0196
     28 C         139.6657  144.2601  162.3511 C.ar    1  UNL1        0.1190
     29 S         140.5942  144.3645  161.1776 S.O2    1  UNL1        0.0116
     30 C         141.5227  144.4688  160.0042 C.3     1  UNL1        0.1816
     31 O         141.5800  143.4776  161.8788 O.2     1  UNL1       -0.1685
     32 O         139.6084  145.2513  160.4765 O.2     1  UNL1       -0.1685
@<TRIPOS>BOND
     1     7     8    1
     2     8     9   am
     3     9    10    2
     4     9     1    1
     5     1     2   ar
     6     2     3   ar
     7     3     4   ar
     8     4    12    1
     9    12    14    1
    10    14    15   ar
    11    15    16   ar
    12    16    17    1
    13    16    18   ar
    14    18    19   ar
    15    19    20   ar
    16     4     5   ar
    17     5     6   ar
    18     6    21    1
    19    21    23    1
    20    23    24   ar
    21    24    25   ar
    22    25    26   ar
    23    26    27   ar
    24    27    28   ar
    25    28    29    1
    26    29    30    1
    27    29    31    2
    28    29    32    2
    29     6     1   ar
    30    28    23   ar
    31    20    14   ar
    32     8    11    1
    33    12    13    1
    34    21    22    1
@<TRIPOS>MOLECULE
*****
 32 34 0 0 0
SMALL
GASTEIGER

@<TRIPOS>ATOM
      1 C         138.7584  140.3200  164.2115 C.ar    1  UNL1        0.0859
      2 C         138.1353  139.6367  165.3925 C.ar    1  UNL1        0.1060
      3 N         138.9319  139.4318  166.6468 N.ar    1  UNL1       -0.2288
      4 C         140.3517  139.9101  166.7202 C.ar    1  UNL1        0.1345
      5 C         140.9748  140.5934  165.5392 C.ar    1  UNL1        0.0492
      6 C         140.1781  140.7984  164.2848 C.ar    1  UNL1        0.0570
      7 C         137.3491  139.8033  160.5377 C.3     1  UNL1        0.1109
      8 N         138.1458  139.5984  161.7920 N.am    1  UNL1       -0.2991
      9 C         137.9617  140.5249  162.9572 C.2     1  UNL1        0.2486
     10 O         136.9810  141.6564  162.8680 O.2     1  UNL1       -0.2700
     11 H         138.7894  138.8558  161.8505 H       1  UNL1        0.1498
     12 N         141.1483  139.7052  167.9745 N.pl3   1  UNL1       -0.2833
     13 H         141.3445  138.7933  168.2896 H       1  UNL1        0.1550
     14 C         141.6460  140.8895  168.7488 C.ar    1  UNL1        0.1329
     15 C         140.7240  142.0362  169.0406 C.ar    1  UNL1        0.0302
     16 C         141.2217  143.2205  169.8149 C.ar    1  UNL1       -0.0175
     17 C         140.2996  144.3671  170.1067 C.3     1  UNL1        0.0312
     18 C         142.6415  143.2583  170.2974 C.ar    1  UNL1        0.0165
     19 C         143.5635  142.1118  170.0056 C.ar    1  UNL1        0.1000
     20 N         143.0658  140.9273  169.2312 N.ar    1  UNL1       -0.2291
     21 N         140.8013  141.4817  163.1038 N.pl3   1  UNL1       -0.3113
     22 H         140.6484  141.1328  162.1960 H       1  UNL1        0.1523
     23 C         141.6574  142.6967  163.3059 C.ar    1  UNL1        0.0656
     24 C         141.0209  144.0205  163.6097 C.ar    1  UNL1        0.0159
     25 C         141.8771  145.2356  163.8118 C.ar    1  UNL1        0.0014
     26 C         143.3697  145.1266  163.7102 C.ar    1  UNL1        0.0014
     27 C         144.0061  143.8028  163.4064 C.ar    1  UNL1        0.0196
     28 C         143.1500  142.5878  163.2043 C.ar    1  UNL1        0.1190
     29 S         143.7865  141.2639  162.9005 S.O2    1  UNL1        0.0116
     30 C         144.4229  139.9400  162.5967 C.3     1  UNL1        0.1816
     31 O         144.2700  141.1712  164.3174 O.2     1  UNL1       -0.1685
     32 O         143.3030  141.3566  161.4836 O.2     1  UNL1       -0.1685
@<TRIPOS>BOND
     1     7     8    1
     2     8     9   am
     3     9    10    2
     4     9     1    1
     5     1     2   ar
     6     2     3   ar
     7     3     4   ar
     8     4    12    1
     9    12    14    1
    10    14    15   ar
    11    15    16   ar
    12    16    17    1
    13    16    18   ar
    14    18    19   ar
    15    19    20   ar
    16     4     5   ar
    17     5     6   ar
    18     6    21    1
    19    21    23    1
    20    23    24   ar
    21    24    25   ar
    22    25    26   ar
    23    26    27   ar
    24    27    28   ar
    25    28    29    1
    26    29    30    1
    27    29    31    2
    28    29    32    2
    29     6     1   ar
    30    28    23   ar
    31    20    14   ar
    32     8    11    1
    33    12    13    1
    34    21    22    1
@<TRIPOS>MOLECULE
*****
 32 34 0 0 0
SMALL
GASTEIGER

@<TRIPOS>ATOM
      1 C         139.6698  138.6128  163.9090 C.ar    1  UNL1        0.0859
      2 C         138.8558  137.6626  164.7363 C.ar    1  UNL1        0.1060
      3 N         138.5630  137.9801  166.1727 N.ar    1  UNL1       -0.2288
      4 C         139.0844  139.2477  166.7820 C.ar    1  UNL1        0.1345
      5 C         139.8984  140.1979  165.9547 C.ar    1  UNL1        0.0492
      6 C         140.1912  139.8804  164.5182 C.ar    1  UNL1        0.0570
      7 C         139.4730  138.6476  159.9454 C.3     1  UNL1        0.1109
      8 N         139.1803  138.9650  161.3819 N.am    1  UNL1       -0.2991
      9 C         139.9625  138.2953  162.4725 C.2     1  UNL1        0.2486
     10 O         141.0376  137.3081  162.1266 O.2     1  UNL1       -0.2700
     11 H         138.4747  139.6130  161.6089 H       1  UNL1        0.1498
     12 N         138.7917  139.5652  168.2185 N.pl3   1  UNL1       -0.2833
     13 H         137.9423  139.2755  168.6234 H       1  UNL1        0.1550
     14 C         139.7930  140.3239  169.0380 C.ar    1  UNL1        0.1329
     15 C         139.7226  141.8205  169.1112 C.ar    1  UNL1        0.0302
     16 C         140.7240  142.5792  169.9307 C.ar    1  UNL1       -0.0175
     17 C         140.6536  144.0758  170.0038 C.3     1  UNL1        0.0312
     18 C         141.7956  141.8414  170.6771 C.ar    1  UNL1        0.0165
     19 C         141.8660  140.3449  170.6040 C.ar    1  UNL1        0.1000
     20 N         140.8647  139.5861  169.7844 N.ar    1  UNL1       -0.2291
     21 N         141.0053  140.8307  163.6910 N.pl3   1  UNL1       -0.3113
     22 H         140.5592  141.4405  163.0598 H       1  UNL1        0.1523
     23 C         142.4991  140.8518  163.8254 C.ar    1  UNL1        0.0656
     24 C         143.2706  139.5654  163.8232 C.ar    1  UNL1        0.0159
     25 C         144.7645  139.5866  163.9576 C.ar    1  UNL1        0.0014
     26 C         145.4867  140.8941  164.0942 C.ar    1  UNL1        0.0014
     27 C         144.7152  142.1805  164.0963 C.ar    1  UNL1        0.0196
     28 C         143.2214  142.1594  163.9619 C.ar    1  UNL1        0.1190
     29 S         142.4499  143.4457  163.9641 S.O2    1  UNL1        0.0116
     30 C         141.6784  144.7321  163.9662 C.3     1  UNL1        0.1816
     31 O         142.9648  143.7568  162.5900 O.2     1  UNL1       -0.1685
     32 O         141.9350  143.1346  165.3381 O.2     1  UNL1       -0.1685
@<TRIPOS>BOND
     1     7     8    1
     2     8     9   am
     3     9    10    2
     4     9     1    1
     5     1     2   ar
     6     2     3   ar
     7     3     4   ar
     8     4    12    1
     9    12    14    1
    10    14    15   ar
    11    15    16   ar
    12    16    17    1
    13    16    18   ar
    14    18    19   ar
    15    19    20   ar
    16     4     5   ar
    17     5     6   ar
    18     6    21    1
    19    21    23    1
    20    23    24   ar
    21    24    25   ar
    22    25    26   ar
    23    26    27   ar
    24    27    28   ar
    25    28    29    1
    26    29    30    1
    27    29    31    2
    28    29    32    2
    29     6     1   ar
    30    28    23   ar
    31    20    14   ar
    32     8    11    1
    33    12    13    1
    34    21    22    1
@<TRIPOS>MOLECULE
*****
 32 34 0 0 0
SMALL
GASTEIGER

@<TRIPOS>ATOM
      1 C         140.2492  141.4330  168.3527 C.ar    1  UNL1        0.0859
      2 C         139.3914  140.3209  168.8796 C.ar    1  UNL1        0.1060
      3 N         138.7906  139.3244  167.9331 N.ar    1  UNL1       -0.2288
      4 C         139.0474  139.4398  166.4598 C.ar    1  UNL1        0.1345
      5 C         139.9052  140.5519  165.9330 C.ar    1  UNL1        0.0492
      6 C         140.5060  141.5485  166.8794 C.ar    1  UNL1        0.0570
      7 C         142.8698  143.2640  170.7043 C.3     1  UNL1        0.1109
      8 N         142.2689  142.2674  169.7578 N.am    1  UNL1       -0.2991
      9 C         140.8500  142.4296  169.2992 C.2     1  UNL1        0.2486
     10 O         140.0320  143.5884  169.7870 O.2     1  UNL1       -0.2700
     11 H         142.8058  141.5068  169.4377 H       1  UNL1        0.1498
     12 N         138.4466  138.4432  165.5133 N.pl3   1  UNL1       -0.2833
     13 H         137.7403  137.8322  165.8250 H       1  UNL1        0.1550
     14 C         138.9217  138.3776  164.0921 C.ar    1  UNL1        0.1329
     15 C         138.1366  139.0528  163.0069 C.ar    1  UNL1        0.0302
     16 C         138.6118  138.9872  161.5857 C.ar    1  UNL1       -0.0175
     17 C         137.8266  139.6624  160.5004 C.3     1  UNL1        0.0312
     18 C         139.8720  138.2464  161.2496 C.ar    1  UNL1        0.0165
     19 C         140.6572  137.5712  162.3348 C.ar    1  UNL1        0.1000
     20 N         140.1820  137.6368  163.7561 N.ar    1  UNL1       -0.2291
     21 N         141.3638  142.6605  166.3525 N.pl3   1  UNL1       -0.3113
     22 H         142.2492  142.8292  166.7486 H       1  UNL1        0.1523
     23 C         140.8726  143.5156  165.2222 C.ar    1  UNL1        0.0656
     24 C         139.4639  144.0310  165.2291 C.ar    1  UNL1        0.0159
     25 C         138.9727  144.8861  164.0987 C.ar    1  UNL1        0.0014
     26 C         139.8901  145.2256  162.9616 C.ar    1  UNL1        0.0014
     27 C         141.2987  144.7102  162.9548 C.ar    1  UNL1        0.0196
     28 C         141.7900  143.8552  164.0851 C.ar    1  UNL1        0.1190
     29 S         143.1986  143.3397  164.0782 S.O2    1  UNL1        0.0116
     30 C         144.6072  142.8243  164.0714 C.3     1  UNL1        0.1816
     31 O         142.6894  141.9516  163.8256 O.2     1  UNL1       -0.1685
     32 O         143.7078  144.7278  164.3309 O.2     1  UNL1       -0.1685
@<TRIPOS>BOND
     1     7     8    1
     2     8     9   am
     3     9    10    2
     4     9     1    1
     5     1     2   ar
     6     2     3   ar
     7     3     4   ar
     8     4    12    1
     9    12    14    1
    10    14    15   ar
    11    15    16   ar
    12    16    17    1
    13    16    18   ar
    14    18    19   ar
    15    19    20   ar
    16     4     5   ar
    17     5     6   ar
    18     6    21    1
    19    21    23    1
    20    23    24   ar
    21    24    25   ar
    22    25    26   ar
    23    26    27   ar
    24    27    28   ar
    25    28    29    1
    26    29    30    1
    27    29    31    2
    28    29    32    2
    29     6     1   ar
    30    28    23   ar
    31    20    14   ar
    32     8    11    1
    33    12    13    1
    34    21    22    1
@<TRIPOS>MOLECULE
*****
 32 34 0 0 0
SMALL
GASTEIGER

@<TRIPOS>ATOM
      1 C         141.1662  138.4664  158.9964 C.ar    1  UNL1        0.0859
      2 C         142.5956  138.4824  158.5419 C.ar    1  UNL1        0.1060
      3 N         143.6999  138.6384  159.5450 N.ar    1  UNL1       -0.2288
      4 C         143.3748  138.7783  161.0026 C.ar    1  UNL1        0.1345
      5 C         141.9455  138.7622  161.4571 C.ar    1  UNL1        0.0492
      6 C         140.8412  138.6063  160.4540 C.ar    1  UNL1        0.0570
      7 C         139.0597  137.1098  155.9187 C.3     1  UNL1        0.1109
      8 N         140.1640  137.2657  156.9218 N.am    1  UNL1       -0.2991
      9 C         140.0619  138.3104  157.9933 C.2     1  UNL1        0.2486
     10 O         138.8555  139.1991  158.0618 O.2     1  UNL1       -0.2700
     11 H         140.9559  136.6824  156.8769 H       1  UNL1        0.1498
     12 N         144.4791  138.9343  162.0057 N.pl3   1  UNL1       -0.2833
     13 H         145.1946  138.2601  162.0590 H       1  UNL1        0.1550
     14 C         144.4933  140.1174  162.9276 C.ar    1  UNL1        0.1329
     15 C         143.6975  140.0874  164.1987 C.ar    1  UNL1        0.0302
     16 C         143.7117  141.2705  165.1206 C.ar    1  UNL1       -0.0175
     17 C         142.9158  141.2405  166.3918 C.3     1  UNL1        0.0312
     18 C         144.5218  142.4837  164.7715 C.ar    1  UNL1        0.0165
     19 C         145.3176  142.5138  163.5004 C.ar    1  UNL1        0.1000
     20 N         145.3034  141.3306  162.5784 N.ar    1  UNL1       -0.2291
     21 N         139.4117  138.5902  160.9087 N.pl3   1  UNL1       -0.3113
     22 H         138.6876  138.4739  160.2519 H       1  UNL1        0.1523
     23 C         139.0857  138.7513  162.3639 C.ar    1  UNL1        0.0656
     24 C         139.1763  137.5730  163.2877 C.ar    1  UNL1        0.0159
     25 C         138.8503  137.7341  164.7430 C.ar    1  UNL1        0.0014
     26 C         138.4335  139.0735  165.2744 C.ar    1  UNL1        0.0014
     27 C         138.3429  140.2518  164.3505 C.ar    1  UNL1        0.0196
     28 C         138.6689  140.0907  162.8953 C.ar    1  UNL1        0.1190
     29 S         138.5783  141.2690  161.9715 S.O2    1  UNL1        0.0116
     30 C         138.4876  142.4472  161.0477 C.3     1  UNL1        0.1816
     31 O         139.9966  141.6330  162.2966 O.2     1  UNL1       -0.1685
     32 O         137.1599  140.9049  161.6464 O.2     1  UNL1       -0.1685
@<TRIPOS>BOND
     1     7     8    1
     2     8     9   am
     3     9    10    2
     4     9     1    1
     5     1     2   ar
     6     2     3   ar
     7     3     4   ar
     8     4    12    1
     9    12    14    1
    10    14    15   ar
    11    15    16   ar
    12    16    17    1
    13    16    18   ar
    14    18    19   ar
    15    19    20   ar
    16     4     5   ar
    17     5     6   ar
    18     6    21    1
    19    21    23    1
    20    23    24   ar
    21    24    25   ar
    22    25    26   ar
    23    26    27   ar
    24    27    28   ar
    25    28    29    1
    26    29    30    1
    27    29    31    2
    28    29    32    2
    29     6     1   ar
    30    28    23   ar
    31    20    14   ar
    32     8    11    1
    33    12    13    1
    34    21    22    1
@<TRIPOS>MOLECULE
*****
 32 34 0 0 0
SMALL
GASTEIGER

@<TRIPOS>ATOM
      1 C         143.3214  143.2765  158.7711 C.ar    1  UNL1        0.0859
      2 C         142.2946  144.2627  158.2988 C.ar    1  UNL1        0.1060
      3 N         141.4988  145.0522  159.2955 N.ar    1  UNL1       -0.2288
      4 C         141.7297  144.8555  160.7644 C.ar    1  UNL1        0.1345
      5 C         142.7565  143.8693  161.2367 C.ar    1  UNL1        0.0492
      6 C         143.5523  143.0798  160.2400 C.ar    1  UNL1        0.0570
      7 C         146.3420  142.0609  156.5021 C.3     1  UNL1        0.1109
      8 N         145.5462  142.8504  157.4988 N.am    1  UNL1       -0.2991
      9 C         144.1172  142.4870  157.7744 C.2     1  UNL1        0.2486
     10 O         143.4840  141.3342  157.0533 O.2     1  UNL1       -0.2700
     11 H         145.9617  143.6070  157.9721 H       1  UNL1        0.1498
     12 N         140.9339  145.6450  161.7611 N.pl3   1  UNL1       -0.2833
     13 H         141.0231  146.6248  161.7971 H       1  UNL1        0.1550
     14 C         140.0022  144.9417  162.7030 C.ar    1  UNL1        0.1329
     15 C         140.5158  144.4091  164.0079 C.ar    1  UNL1        0.0302
     16 C         139.5840  143.7058  164.9498 C.ar    1  UNL1       -0.0175
     17 C         140.0977  143.1733  166.2547 C.3     1  UNL1        0.0312
     18 C         138.1387  143.5350  164.5868 C.ar    1  UNL1        0.0165
     19 C         137.6250  144.0675  163.2820 C.ar    1  UNL1        0.1000
     20 N         138.5568  144.7709  162.3401 N.ar    1  UNL1       -0.2291
     21 N         144.5791  142.0935  160.7124 N.pl3   1  UNL1       -0.3113
     22 H         145.5348  142.3287  160.6893 H       1  UNL1        0.1523
     23 C         144.1497  140.7489  161.2200 C.ar    1  UNL1        0.0656
     24 C         143.7752  139.6663  160.2516 C.ar    1  UNL1        0.0159
     25 C         143.3458  138.3216  160.7592 C.ar    1  UNL1        0.0014
     26 C         143.2910  138.0596  162.2351 C.ar    1  UNL1        0.0014
     27 C         143.6655  139.1422  163.2035 C.ar    1  UNL1        0.0196
     28 C         144.0949  140.4868  162.6959 C.ar    1  UNL1        0.1190
     29 S         144.4694  141.5694  163.6643 S.O2    1  UNL1        0.0116
     30 C         144.8440  142.6520  164.6326 C.3     1  UNL1        0.1816
     31 O         143.0340  141.6926  164.0818 O.2     1  UNL1       -0.1685
     32 O         145.9049  141.4462  163.2468 O.2     1  UNL1       -0.1685
@<TRIPOS>BOND
     1     7     8    1
     2     8     9   am
     3     9    10    2
     4     9     1    1
     5     1     2   ar
     6     2     3   ar
     7     3     4   ar
     8     4    12    1
     9    12    14    1
    10    14    15   ar
    11    15    16   ar
    12    16    17    1
    13    16    18   ar
    14    18    19   ar
    15    19    20   ar
    16     4     5   ar
    17     5     6   ar
    18     6    21    1
    19    21    23    1
    20    23    24   ar
    21    24    25   ar
    22    25    26   ar
    23    26    27   ar
    24    27    28   ar
    25    28    29    1
    26    29    30    1
    27    29    31    2
    28    29    32    2
    29     6     1   ar
    30    28    23   ar
    31    20    14   ar
    32     8    11    1
    33    12    13    1
    34    21    22    1
@<TRIPOS>MOLECULE
*****
 32 34 0 0 0
SMALL
GASTEIGER

@<TRIPOS>ATOM
      1 C         141.7832  140.5681  168.7103 C.ar    1  UNL1        0.0859
      2 C         140.4456  140.4250  169.3739 C.ar    1  UNL1        0.1060
      3 N         139.2561  139.9804  168.5755 N.ar    1  UNL1       -0.2288
      4 C         139.4042  139.6789  167.1137 C.ar    1  UNL1        0.1345
      5 C         140.7417  139.8220  166.4501 C.ar    1  UNL1        0.0492
      6 C         141.9313  140.2666  167.2484 C.ar    1  UNL1        0.0570
      7 C         144.6999  142.8479  170.1407 C.3     1  UNL1        0.1109
      8 N         143.5103  142.4032  169.3424 N.am    1  UNL1       -0.2991
      9 C         142.9728  141.0128  169.5086 C.2     1  UNL1        0.2486
     10 O         143.6247  140.0670  170.4732 O.2     1  UNL1       -0.2700
     11 H         143.0824  143.0240  168.7093 H       1  UNL1        0.1498
     12 N         138.2146  139.2342  166.3153 N.pl3   1  UNL1       -0.2833
     13 H         137.3728  139.0061  166.7719 H       1  UNL1        0.1550
     14 C         138.3078  139.1372  164.8214 C.ar    1  UNL1        0.1329
     15 C         138.0153  140.3385  163.9721 C.ar    1  UNL1        0.0302
     16 C         138.1085  140.2415  162.4782 C.ar    1  UNL1       -0.0175
     17 C         137.8160  141.4428  161.6288 C.3     1  UNL1        0.0312
     18 C         138.4940  138.9431  161.8335 C.ar    1  UNL1        0.0165
     19 C         138.7864  137.7418  162.6827 C.ar    1  UNL1        0.1000
     20 N         138.6933  137.8388  164.1768 N.ar    1  UNL1       -0.2291
     21 N         143.2689  140.4097  166.5848 N.pl3   1  UNL1       -0.3113
     22 H         144.0149  139.8244  166.8495 H       1  UNL1        0.1523
     23 C         143.4699  141.4447  165.5179 C.ar    1  UNL1        0.0656
     24 C         143.8155  142.8545  165.8961 C.ar    1  UNL1        0.0159
     25 C         144.0165  143.8895  164.8291 C.ar    1  UNL1        0.0014
     26 C         143.8719  143.5146  163.3839 C.ar    1  UNL1        0.0014
     27 C         143.5263  142.1048  163.0057 C.ar    1  UNL1        0.0196
     28 C         143.3253  141.0699  164.0726 C.ar    1  UNL1        0.1190
     29 S         142.9797  139.6601  163.6944 S.O2    1  UNL1        0.0116
     30 C         142.6341  138.2503  163.3162 C.3     1  UNL1        0.1816
     31 O         144.3124  139.1968  164.2034 O.2     1  UNL1       -0.1685
     32 O         141.6469  140.1234  163.1853 O.2     1  UNL1       -0.1685
@<TRIPOS>BOND
     1     7     8    1
     2     8     9   am
     3     9    10    2
     4     9     1    1
     5     1     2   ar
     6     2     3   ar
     7     3     4   ar
     8     4    12    1
     9    12    14    1
    10    14    15   ar
    11    15    16   ar
    12    16    17    1
    13    16    18   ar
    14    18    19   ar
    15    19    20   ar
    16     4     5   ar
    17     5     6   ar
    18     6    21    1
    19    21    23    1
    20    23    24   ar
    21    24    25   ar
    22    25    26   ar
    23    26    27   ar
    24    27    28   ar
    25    28    29    1
    26    29    30    1
    27    29    31    2
    28    29    32    2
    29     6     1   ar
    30    28    23   ar
    31    20    14   ar
    32     8    11    1
    33    12    13    1
    34    21    22    1
