@<TRIPOS>MOLECULE
*****
 36 39 0 0 0
SMALL
GASTEIGER

@<TRIPOS>ATOM
      1 C         139.6145  139.8879  168.0122 C.ar    1  UNL1        0.1345
      2 C         140.7137  140.5079  167.2014 C.ar    1  UNL1        0.0489
      3 C         141.7692  141.3332  167.8758 C.ar    1  UNL1        0.0533
      4 C         141.7255  141.5386  169.3610 C.ar    1  UNL1        0.0854
      5 C         140.6263  140.9186  170.1719 C.ar    1  UNL1        0.1060
      6 N         139.5708  140.0933  169.4974 N.ar    1  UNL1       -0.2288
      7 C         142.7810  142.3639  170.0355 C.2     1  UNL1        0.2455
      8 N         142.5258  142.9416  171.3960 N.am    1  UNL1       -0.3252
      9 O         144.0916  142.6116  169.3493 O.2     1  UNL1       -0.2703
     10 H         141.6655  142.7790  171.8464 H       1  UNL1        0.1453
     11 H         143.2185  143.4833  171.8387 H       1  UNL1        0.1453
     12 N         138.5591  139.0626  167.3378 N.pl3   1  UNL1       -0.2821
     13 H         137.8828  138.5923  167.8769 H       1  UNL1        0.1551
     14 C         138.4590  138.6275  161.3544 C.3     1  UNL1        0.0538
     15 C         138.4840  138.7363  162.8503 C.ar    1  UNL1        0.0786
     16 C         138.9623  137.5807  163.6784 C.ar    1  UNL1        0.1150
     17 N         138.9873  137.6894  165.1742 N.ar    1  UNL1       -0.2262
     18 C         138.5341  138.9538  165.8420 C.ar    1  UNL1        0.1526
     19 C         138.0559  140.1094  165.0138 C.ar    1  UNL1        0.1328
     20 N         138.0308  140.0006  163.5180 N.ar    1  UNL1       -0.2436
     21 N         142.8684  141.9532  167.0650 N.pl3   1  UNL1       -0.3337
     22 H         143.7833  141.9947  167.4263 H       1  UNL1        0.1468
     23 C         142.5737  142.5101  165.7037 C.3     1  UNL1        0.0724
     24 C         141.2688  143.2027  165.4431 C.3     1  UNL1        0.0410
     25 C         140.9741  143.7595  164.0818 C.3     1  UNL1        0.0939
     26 N         141.9842  143.6237  162.9812 N.pl3   1  UNL1       -0.2931
     27 C         143.2889  142.9312  163.2418 C.3     1  UNL1        0.0939
     28 C         143.5836  142.3743  164.6031 C.3     1  UNL1        0.0410
     29 C         141.6894  144.1805  161.6199 C.ar    1  UNL1        0.1317
     30 C         140.5545  145.1435  161.4331 C.ar    1  UNL1        0.0350
     31 C         140.2598  145.7003  160.0718 C.ar    1  UNL1        0.0147
     32 C         141.0999  145.2942  158.8973 C.ar    1  UNL1        0.0877
     33 C         142.2348  144.3313  159.0842 C.ar    1  UNL1        0.1105
     34 N         142.5295  143.7745  160.4455 N.ar    1  UNL1       -0.2285
     35 C         140.8052  145.8510  157.5361 C.1     1  UNL1        0.1020
     36 N         140.5104  146.4078  156.1748 N.1     1  UNL1       -0.1908
@<TRIPOS>BOND
     1    14    15    1
     2    15    16   ar
     3    16    17   ar
     4    17    18   ar
     5    18    12    1
     6    12     1    1
     7     1     2   ar
     8     2     3   ar
     9     3    21    1
    10    21    23    1
    11    23    24    1
    12    24    25    1
    13    25    26    1
    14    26    29    1
    15    29    30   ar
    16    30    31   ar
    17    31    32   ar
    18    32    35    1
    19    35    36    3
    20    32    33   ar
    21    33    34   ar
    22    26    27    1
    23    27    28    1
    24     3     4   ar
    25     4     7    1
    26     7     8   am
    27     7     9    2
    28     4     5   ar
    29     5     6   ar
    30    18    19   ar
    31    19    20   ar
    32    20    15   ar
    33     6     1   ar
    34    28    23    1
    35    34    29   ar
    36    12    13    1
    37    21    22    1
    38     8    10    1
    39     8    11    1
@<TRIPOS>MOLECULE
*****
 36 39 0 0 0
SMALL
GASTEIGER

@<TRIPOS>ATOM
      1 C         139.0428  139.4310  158.7107 C.ar    1  UNL1        0.1345
      2 C         140.0791  139.0644  159.7314 C.ar    1  UNL1        0.0489
      3 C         141.3250  138.3433  159.3098 C.ar    1  UNL1        0.0533
      4 C         141.5346  137.9887  157.8675 C.ar    1  UNL1        0.0854
      5 C         140.4984  138.3552  156.8468 C.ar    1  UNL1        0.1060
      6 N         139.2524  139.0763  157.2684 N.ar    1  UNL1       -0.2288
      7 C         142.7805  137.2676  157.4459 C.2     1  UNL1        0.2455
      8 N         143.7368  137.9182  156.4907 N.am    1  UNL1       -0.3252
      9 O         143.0702  135.8960  157.9794 O.2     1  UNL1       -0.2703
     10 H         143.5467  138.8184  156.1405 H       1  UNL1        0.1453
     11 H         144.5545  137.4449  156.2140 H       1  UNL1        0.1453
     12 N         137.7969  140.1521  159.1324 N.pl3   1  UNL1       -0.2821
     13 H         136.9569  140.0138  158.6379 H       1  UNL1        0.1551
     14 C         137.9328  143.8790  163.8326 C.3     1  UNL1        0.0538
     15 C         137.8988  142.9472  162.6575 C.ar    1  UNL1        0.0786
     16 C         137.3762  141.5510  162.8223 C.ar    1  UNL1        0.1150
     17 N         137.3422  140.6192  161.6473 N.ar    1  UNL1       -0.2262
     18 C         137.8309  141.0838  160.3074 C.ar    1  UNL1        0.1526
     19 C         138.3536  142.4800  160.1426 C.ar    1  UNL1        0.1328
     20 N         138.3875  143.4118  161.3176 N.ar    1  UNL1       -0.2436
     21 N         142.3613  137.9768  160.3305 N.pl3   1  UNL1       -0.3337
     22 H         143.1784  137.5024  160.0540 H       1  UNL1        0.1468
     23 C         142.1526  138.3332  161.7725 C.3     1  UNL1        0.0724
     24 C         142.7118  139.6141  162.3171 C.3     1  UNL1        0.0410
     25 C         142.5031  139.9705  163.7591 C.3     1  UNL1        0.0939
     26 N         141.7352  139.0459  164.6566 N.pl3   1  UNL1       -0.2931
     27 C         141.1760  137.7650  164.1121 C.3     1  UNL1        0.0939
     28 C         141.3847  137.4086  162.6700 C.3     1  UNL1        0.0410
     29 C         141.5265  139.4022  166.0986 C.ar    1  UNL1        0.1317
     30 C         142.6725  139.3260  167.0635 C.ar    1  UNL1        0.0350
     31 C         142.4638  139.6823  168.5055 C.ar    1  UNL1        0.0147
     32 C         141.1091  140.1149  168.9827 C.ar    1  UNL1        0.0877
     33 C         139.9631  140.1912  168.0179 C.ar    1  UNL1        0.1105
     34 N         140.1718  139.8348  166.5758 N.ar    1  UNL1       -0.2285
     35 C         140.9004  140.4713  170.4247 C.1     1  UNL1        0.1020
     36 N         140.6917  140.8276  171.8668 N.1     1  UNL1       -0.1908
@<TRIPOS>BOND
     1    14    15    1
     2    15    16   ar
     3    16    17   ar
     4    17    18   ar
     5    18    12    1
     6    12     1    1
     7     1     2   ar
     8     2     3   ar
     9     3    21    1
    10    21    23    1
    11    23    24    1
    12    24    25    1
    13    25    26    1
    14    26    29    1
    15    29    30   ar
    16    30    31   ar
    17    31    32   ar
    18    32    35    1
    19    35    36    3
    20    32    33   ar
    21    33    34   ar
    22    26    27    1
    23    27    28    1
    24     3     4   ar
    25     4     7    1
    26     7     8   am
    27     7     9    2
    28     4     5   ar
    29     5     6   ar
    30    18    19   ar
    31    19    20   ar
    32    20    15   ar
    33     6     1   ar
    34    28    23    1
    35    34    29   ar
    36    12    13    1
    37    21    22    1
    38     8    10    1
    39     8    11    1
@<TRIPOS>MOLECULE
*****
 36 39 0 0 0
SMALL
GASTEIGER

@<TRIPOS>ATOM
      1 C         138.7661  139.4689  167.6171 C.ar    1  UNL1        0.1345
      2 C         139.7795  140.4590  167.1242 C.ar    1  UNL1        0.0489
      3 C         140.3407  141.4873  168.0610 C.ar    1  UNL1        0.0533
      4 C         139.8887  141.5255  169.4908 C.ar    1  UNL1        0.0854
      5 C         138.8753  140.5355  169.9837 C.ar    1  UNL1        0.1060
      6 N         138.3140  139.5072  169.0469 N.ar    1  UNL1       -0.2288
      7 C         140.4500  142.5538  170.4276 C.2     1  UNL1        0.2455
      8 N         139.9876  143.9782  170.3420 N.am    1  UNL1       -0.3252
      9 O         141.4735  142.1577  171.4500 O.2     1  UNL1       -0.2703
     10 H         139.3158  144.2382  169.6710 H       1  UNL1        0.1453
     11 H         140.3560  144.6531  170.9569 H       1  UNL1        0.1453
     12 N         138.2049  138.4407  166.6803 N.pl3   1  UNL1       -0.2821
     13 H         137.5689  137.7668  167.0128 H       1  UNL1        0.1551
     14 C         139.8354  138.4351  160.9061 C.3     1  UNL1        0.0538
     15 C         139.4278  138.4365  162.3496 C.ar    1  UNL1        0.0786
     16 C         138.5073  139.5014  162.8680 C.ar    1  UNL1        0.1150
     17 N         138.0997  139.5028  164.3115 N.ar    1  UNL1       -0.2262
     18 C         138.6125  138.4393  165.2367 C.ar    1  UNL1        0.1526
     19 C         139.5330  137.3745  164.7184 C.ar    1  UNL1        0.1328
     20 N         139.9406  137.3731  163.2748 N.ar    1  UNL1       -0.2436
     21 N         141.3541  142.4774  167.5681 N.pl3   1  UNL1       -0.3337
     22 H         142.0234  142.8469  168.1884 H       1  UNL1        0.1468
     23 C         141.3477  142.9043  166.1302 C.3     1  UNL1        0.0724
     24 C         142.5270  142.6036  165.2533 C.3     1  UNL1        0.0410
     25 C         142.5206  143.0306  163.8153 C.3     1  UNL1        0.0939
     26 N         141.3349  143.7583  163.2543 N.pl3   1  UNL1       -0.2931
     27 C         140.1556  144.0589  164.1312 C.3     1  UNL1        0.0939
     28 C         140.1621  143.6320  165.5692 C.3     1  UNL1        0.0410
     29 C         141.3284  144.1852  161.8164 C.ar    1  UNL1        0.1317
     30 C         142.2944  143.5706  160.8472 C.ar    1  UNL1        0.0350
     31 C         142.2880  143.9975  159.4093 C.ar    1  UNL1        0.0147
     32 C         141.3156  145.0392  158.9405 C.ar    1  UNL1        0.0877
     33 C         140.3498  145.6538  159.9097 C.ar    1  UNL1        0.1105
     34 N         140.3562  145.2268  161.3476 N.ar    1  UNL1       -0.2285
     35 C         141.3092  145.4661  157.5026 C.1     1  UNL1        0.1020
     36 N         141.3028  145.8931  156.0646 N.1     1  UNL1       -0.1908
@<TRIPOS>BOND
     1    14    15    1
     2    15    16   ar
     3    16    17   ar
     4    17    18   ar
     5    18    12    1
     6    12     1    1
     7     1     2   ar
     8     2     3   ar
     9     3    21    1
    10    21    23    1
    11    23    24    1
    12    24    25    1
    13    25    26    1
    14    26    29    1
    15    29    30   ar
    16    30    31   ar
    17    31    32   ar
    18    32    35    1
    19    35    36    3
    20    32    33   ar
    21    33    34   ar
    22    26    27    1
    23    27    28    1
    24     3     4   ar
    25     4     7    1
    26     7     8   am
    27     7     9    2
    28     4     5   ar
    29     5     6   ar
    30    18    19   ar
    31    19    20   ar
    32    20    15   ar
    33     6     1   ar
    34    28    23    1
    35    34    29   ar
    36    12    13    1
    37    21    22    1
    38     8    10    1
    39     8    11    1
@<TRIPOS>MOLECULE
*****
 36 39 0 0 0
SMALL
GASTEIGER

@<TRIPOS>ATOM
      1 C         142.9468  139.0381  167.1539 C.ar    1  UNL1        0.1345
      2 C         141.7908  139.8400  166.6335 C.ar    1  UNL1        0.0489
      3 C         140.7670  140.3845  167.5849 C.ar    1  UNL1        0.0533
      4 C         140.8991  140.1271  169.0567 C.ar    1  UNL1        0.0854
      5 C         142.0549  139.3252  169.5772 C.ar    1  UNL1        0.1060
      6 N         143.0788  138.7807  168.6257 N.ar    1  UNL1       -0.2288
      7 C         139.8751  140.6716  170.0082 C.2     1  UNL1        0.2455
      8 N         139.0294  139.7335  170.8173 N.am    1  UNL1       -0.3252
      9 O         139.6970  142.1542  170.1505 O.2     1  UNL1       -0.2703
     10 H         139.1463  138.7605  170.7239 H       1  UNL1        0.1453
     11 H         138.3574  140.0909  171.4418 H       1  UNL1        0.1453
     12 N         143.9706  138.4936  166.2024 N.pl3   1  UNL1       -0.2821
     13 H         144.6493  137.8558  166.5217 H       1  UNL1        0.1551
     14 C         143.9298  140.2022  160.4510 C.3     1  UNL1        0.0538
     15 C         143.9400  139.7750  161.8889 C.ar    1  UNL1        0.0786
     16 C         142.9835  138.7225  162.3654 C.ar    1  UNL1        0.1150
     17 N         142.9937  138.2953  163.8032 N.ar    1  UNL1       -0.2262
     18 C         143.9604  138.9207  164.7646 C.ar    1  UNL1        0.1526
     19 C         144.9169  139.9733  164.2881 C.ar    1  UNL1        0.1328
     20 N         144.9067  140.4005  162.8502 N.ar    1  UNL1       -0.2436
     21 N         139.6111  141.1864  167.0645 N.pl3   1  UNL1       -0.3337
     22 H         138.7945  141.2817  167.6062 H       1  UNL1        0.1468
     23 C         139.6992  141.8432  165.7188 C.3     1  UNL1        0.0724
     24 C         140.4950  143.1035  165.5500 C.3     1  UNL1        0.0410
     25 C         140.5832  143.7602  164.2043 C.3     1  UNL1        0.0939
     26 N         139.8756  143.1566  163.0274 N.pl3   1  UNL1       -0.2931
     27 C         139.0800  141.8963  163.1962 C.3     1  UNL1        0.0939
     28 C         138.9918  141.2396  164.5419 C.3     1  UNL1        0.0410
     29 C         139.9638  143.8133  161.6817 C.ar    1  UNL1        0.1317
     30 C         140.1636  145.2967  161.5827 C.ar    1  UNL1        0.0350
     31 C         140.2518  145.9534  160.2370 C.ar    1  UNL1        0.0147
     32 C         140.1402  145.1267  158.9902 C.ar    1  UNL1        0.0877
     33 C         139.9404  143.6434  159.0893 C.ar    1  UNL1        0.1105
     34 N         139.8522  142.9867  160.4350 N.ar    1  UNL1       -0.2285
     35 C         140.2284  145.7834  157.6445 C.1     1  UNL1        0.1020
     36 N         140.3166  146.4402  156.2988 N.1     1  UNL1       -0.1908
@<TRIPOS>BOND
     1    14    15    1
     2    15    16   ar
     3    16    17   ar
     4    17    18   ar
     5    18    12    1
     6    12     1    1
     7     1     2   ar
     8     2     3   ar
     9     3    21    1
    10    21    23    1
    11    23    24    1
    12    24    25    1
    13    25    26    1
    14    26    29    1
    15    29    30   ar
    16    30    31   ar
    17    31    32   ar
    18    32    35    1
    19    35    36    3
    20    32    33   ar
    21    33    34   ar
    22    26    27    1
    23    27    28    1
    24     3     4   ar
    25     4     7    1
    26     7     8   am
    27     7     9    2
    28     4     5   ar
    29     5     6   ar
    30    18    19   ar
    31    19    20   ar
    32    20    15   ar
    33     6     1   ar
    34    28    23    1
    35    34    29   ar
    36    12    13    1
    37    21    22    1
    38     8    10    1
    39     8    11    1
@<TRIPOS>MOLECULE
*****
 36 39 0 0 0
SMALL
GASTEIGER

@<TRIPOS>ATOM
      1 C         141.0741  139.6977  157.7379 C.ar    1  UNL1        0.1345
      2 C         139.9734  139.5528  158.7467 C.ar    1  UNL1        0.0489
      3 C         138.6037  140.0837  158.4436 C.ar    1  UNL1        0.0533
      4 C         138.3345  140.7594  157.1318 C.ar    1  UNL1        0.0854
      5 C         139.4351  140.9042  156.1230 C.ar    1  UNL1        0.1060
      6 N         140.8049  140.3734  156.4260 N.ar    1  UNL1       -0.2288
      7 C         136.9646  141.2902  156.8287 C.2     1  UNL1        0.2455
      8 N         136.7791  142.7412  156.4966 N.am    1  UNL1       -0.3252
      9 O         135.7804  140.3701  156.8578 O.2     1  UNL1       -0.2703
     10 H         137.5564  143.3451  156.4776 H       1  UNL1        0.1453
     11 H         135.8801  143.0896  156.2977 H       1  UNL1        0.1453
     12 N         142.4439  139.1668  158.0410 N.pl3   1  UNL1       -0.2821
     13 H         142.9890  138.7723  157.3224 H       1  UNL1        0.1551
     14 C         144.6007  139.4477  163.6329 C.3     1  UNL1        0.0538
     15 C         144.0615  139.3775  162.2349 C.ar    1  UNL1        0.0786
     16 C         143.6580  138.0556  161.6522 C.ar    1  UNL1        0.1150
     17 N         143.1188  137.9853  160.2542 N.ar    1  UNL1       -0.2262
     18 C         142.9831  139.2371  159.4390 C.ar    1  UNL1        0.1526
     19 C         143.3866  140.5590  160.0217 C.ar    1  UNL1        0.1328
     20 N         143.9258  140.6292  161.4197 N.ar    1  UNL1       -0.2436
     21 N         137.5030  139.9388  159.4524 N.pl3   1  UNL1       -0.3337
     22 H         136.5733  139.8164  159.1525 H       1  UNL1        0.1468
     23 C         137.8188  139.9805  160.9182 C.3     1  UNL1        0.0724
     24 C         138.1107  138.7092  161.6590 C.3     1  UNL1        0.0410
     25 C         138.4266  138.7508  163.1247 C.3     1  UNL1        0.0939
     26 N         138.4505  140.0638  163.8498 N.pl3   1  UNL1       -0.2931
     27 C         138.1587  141.3350  163.1090 C.3     1  UNL1        0.0939
     28 C         137.8428  141.2934  161.6432 C.3     1  UNL1        0.0410
     29 C         138.7664  140.1055  165.3155 C.ar    1  UNL1        0.1317
     30 C         138.0753  139.1658  166.2587 C.ar    1  UNL1        0.0350
     31 C         138.3911  139.2075  167.7245 C.ar    1  UNL1        0.0147
     32 C         139.3981  140.1888  168.2471 C.ar    1  UNL1        0.0877
     33 C         140.0891  141.1284  167.3040 C.ar    1  UNL1        0.1105
     34 N         139.7733  141.0867  165.8382 N.ar    1  UNL1       -0.2285
     35 C         139.7139  140.2304  169.7129 C.1     1  UNL1        0.1020
     36 N         140.0298  140.2721  171.1787 N.1     1  UNL1       -0.1908
@<TRIPOS>BOND
     1    14    15    1
     2    15    16   ar
     3    16    17   ar
     4    17    18   ar
     5    18    12    1
     6    12     1    1
     7     1     2   ar
     8     2     3   ar
     9     3    21    1
    10    21    23    1
    11    23    24    1
    12    24    25    1
    13    25    26    1
    14    26    29    1
    15    29    30   ar
    16    30    31   ar
    17    31    32   ar
    18    32    35    1
    19    35    36    3
    20    32    33   ar
    21    33    34   ar
    22    26    27    1
    23    27    28    1
    24     3     4   ar
    25     4     7    1
    26     7     8   am
    27     7     9    2
    28     4     5   ar
    29     5     6   ar
    30    18    19   ar
    31    19    20   ar
    32    20    15   ar
    33     6     1   ar
    34    28    23    1
    35    34    29   ar
    36    12    13    1
    37    21    22    1
    38     8    10    1
    39     8    11    1
@<TRIPOS>MOLECULE
*****
 36 39 0 0 0
SMALL
GASTEIGER

@<TRIPOS>ATOM
      1 C         139.4060  139.0283  157.5610 C.ar    1  UNL1        0.1345
      2 C         140.6694  139.2362  158.3427 C.ar    1  UNL1        0.0489
      3 C         141.8725  138.3851  158.0637 C.ar    1  UNL1        0.0533
      4 C         141.8125  137.3261  157.0030 C.ar    1  UNL1        0.0854
      5 C         140.5493  137.1183  156.2214 C.ar    1  UNL1        0.1060
      6 N         139.3460  137.9694  156.5004 N.ar    1  UNL1       -0.2288
      7 C         143.0158  136.4750  156.7240 C.2     1  UNL1        0.2455
      8 N         142.9949  135.0134  157.0606 N.am    1  UNL1       -0.3252
      9 O         144.2398  137.0855  156.1084 O.2     1  UNL1       -0.2703
     10 H         142.1915  134.6127  157.4646 H       1  UNL1        0.1453
     11 H         143.7847  134.4548  156.8775 H       1  UNL1        0.1453
     12 N         138.2028  139.8794  157.8401 N.pl3   1  UNL1       -0.2821
     13 H         137.4541  139.8980  157.2011 H       1  UNL1        0.1551
     14 C         137.9530  143.1708  162.8505 C.3     1  UNL1        0.0538
     15 C         138.0155  142.3480  161.5979 C.ar    1  UNL1        0.0786
     16 C         137.7029  140.8818  161.6473 C.ar    1  UNL1        0.1150
     17 N         137.7654  140.0589  160.3947 N.ar    1  UNL1       -0.2262
     18 C         138.1404  140.7023  159.0927 C.ar    1  UNL1        0.1526
     19 C         138.4529  142.1685  159.0432 C.ar    1  UNL1        0.1328
     20 N         138.3905  142.9913  160.2958 N.ar    1  UNL1       -0.2436
     21 N         143.1359  138.5929  158.8453 N.pl3   1  UNL1       -0.3337
     22 H         144.0074  138.5670  158.3882 H       1  UNL1        0.1468
     23 C         143.0712  138.8401  160.3234 C.3     1  UNL1        0.0724
     24 C         143.5410  140.1488  160.8862 C.3     1  UNL1        0.0410
     25 C         143.4763  140.3961  162.3642 C.3     1  UNL1        0.0939
     26 N         142.9418  139.3346  163.2795 N.pl3   1  UNL1       -0.2931
     27 C         142.4720  138.0260  162.7167 C.3     1  UNL1        0.0939
     28 C         142.5367  137.7788  161.2387 C.3     1  UNL1        0.0410
     29 C         142.8771  139.5818  164.7576 C.ar    1  UNL1        0.1317
     30 C         143.2080  138.4779  165.7178 C.ar    1  UNL1        0.0350
     31 C         143.1433  138.7252  167.1959 C.ar    1  UNL1        0.0147
     32 C         142.7478  140.0763  167.7137 C.ar    1  UNL1        0.0877
     33 C         142.4169  141.1801  166.7535 C.ar    1  UNL1        0.1105
     34 N         142.4816  140.9329  165.2754 N.ar    1  UNL1       -0.2285
     35 C         142.6831  140.3235  169.1918 C.1     1  UNL1        0.1020
     36 N         142.6184  140.5708  170.6699 N.1     1  UNL1       -0.1908
@<TRIPOS>BOND
     1    14    15    1
     2    15    16   ar
     3    16    17   ar
     4    17    18   ar
     5    18    12    1
     6    12     1    1
     7     1     2   ar
     8     2     3   ar
     9     3    21    1
    10    21    23    1
    11    23    24    1
    12    24    25    1
    13    25    26    1
    14    26    29    1
    15    29    30   ar
    16    30    31   ar
    17    31    32   ar
    18    32    35    1
    19    35    36    3
    20    32    33   ar
    21    33    34   ar
    22    26    27    1
    23    27    28    1
    24     3     4   ar
    25     4     7    1
    26     7     8   am
    27     7     9    2
    28     4     5   ar
    29     5     6   ar
    30    18    19   ar
    31    19    20   ar
    32    20    15   ar
    33     6     1   ar
    34    28    23    1
    35    34    29   ar
    36    12    13    1
    37    21    22    1
    38     8    10    1
    39     8    11    1
@<TRIPOS>MOLECULE
*****
 36 39 0 0 0
SMALL
GASTEIGER

@<TRIPOS>ATOM
      1 C         138.9897  141.8117  157.9529 C.ar    1  UNL1        0.1345
      2 C         139.3559  142.6032  159.1734 C.ar    1  UNL1        0.0489
      3 C         139.9671  143.9653  159.0285 C.ar    1  UNL1        0.0533
      4 C         140.2121  144.5360  157.6632 C.ar    1  UNL1        0.0854
      5 C         139.8460  143.7447  156.4427 C.ar    1  UNL1        0.1060
      6 N         139.2347  142.3825  156.5875 N.ar    1  UNL1       -0.2288
      7 C         140.8234  145.8982  157.5184 C.2     1  UNL1        0.2455
      8 N         140.0511  147.0001  156.8553 N.am    1  UNL1       -0.3252
      9 O         142.2067  146.1585  158.0365 O.2     1  UNL1       -0.2703
     10 H         139.1432  146.8293  156.5153 H       1  UNL1        0.1453
     11 H         140.4523  147.8941  156.7603 H       1  UNL1        0.1453
     12 N         138.3785  140.4496  158.0978 N.pl3   1  UNL1       -0.2821
     13 H         137.8974  140.0430  157.3412 H       1  UNL1        0.1551
     14 C         138.8657  137.4794  163.2882 C.3     1  UNL1        0.0538
     15 C         138.7439  138.2219  161.9906 C.ar    1  UNL1        0.0786
     16 C         137.5780  139.1361  161.7562 C.ar    1  UNL1        0.1150
     17 N         137.4562  139.8787  160.4586 N.ar    1  UNL1       -0.2262
     18 C         138.5003  139.7071  159.3954 C.ar    1  UNL1        0.1526
     19 C         139.6662  138.7929  159.6298 C.ar    1  UNL1        0.1328
     20 N         139.7879  138.0503  160.9274 N.ar    1  UNL1       -0.2436
     21 N         140.3333  144.7567  160.2491 N.pl3   1  UNL1       -0.3337
     22 H         140.6210  145.6940  160.1600 H       1  UNL1        0.1468
     23 C         140.2610  144.1201  161.6053 C.3     1  UNL1        0.0724
     24 C         141.4471  143.3818  162.1514 C.3     1  UNL1        0.0410
     25 C         141.3749  142.7451  163.5077 C.3     1  UNL1        0.0939
     26 N         140.1165  142.8467  164.3178 N.pl3   1  UNL1       -0.2931
     27 C         138.9305  143.5850  163.7717 C.3     1  UNL1        0.0939
     28 C         139.0028  144.2217  162.4155 C.3     1  UNL1        0.0410
     29 C         140.0443  142.2101  165.6741 C.ar    1  UNL1        0.1317
     30 C         139.3974  140.8667  165.8385 C.ar    1  UNL1        0.0350
     31 C         139.3252  140.2300  167.1948 C.ar    1  UNL1        0.0147
     32 C         139.8998  140.9367  168.3866 C.ar    1  UNL1        0.0877
     33 C         140.5466  142.2801  168.2222 C.ar    1  UNL1        0.1105
     34 N         140.6189  142.9167  166.8659 N.ar    1  UNL1       -0.2285
     35 C         139.8275  140.3001  169.7429 C.1     1  UNL1        0.1020
     36 N         139.7553  139.6634  171.0991 N.1     1  UNL1       -0.1908
@<TRIPOS>BOND
     1    14    15    1
     2    15    16   ar
     3    16    17   ar
     4    17    18   ar
     5    18    12    1
     6    12     1    1
     7     1     2   ar
     8     2     3   ar
     9     3    21    1
    10    21    23    1
    11    23    24    1
    12    24    25    1
    13    25    26    1
    14    26    29    1
    15    29    30   ar
    16    30    31   ar
    17    31    32   ar
    18    32    35    1
    19    35    36    3
    20    32    33   ar
    21    33    34   ar
    22    26    27    1
    23    27    28    1
    24     3     4   ar
    25     4     7    1
    26     7     8   am
    27     7     9    2
    28     4     5   ar
    29     5     6   ar
    30    18    19   ar
    31    19    20   ar
    32    20    15   ar
    33     6     1   ar
    34    28    23    1
    35    34    29   ar
    36    12    13    1
    37    21    22    1
    38     8    10    1
    39     8    11    1
@<TRIPOS>MOLECULE
*****
 36 39 0 0 0
SMALL
GASTEIGER

@<TRIPOS>ATOM
      1 C         141.4605  143.7944  158.6211 C.ar    1  UNL1        0.1345
      2 C         142.4106  143.3664  159.7001 C.ar    1  UNL1        0.0489
      3 C         143.7437  142.7823  159.3372 C.ar    1  UNL1        0.0533
      4 C         144.1266  142.6262  157.8953 C.ar    1  UNL1        0.0854
      5 C         143.1765  143.0541  156.8164 C.ar    1  UNL1        0.1060
      6 N         141.8434  143.6382  157.1793 N.ar    1  UNL1       -0.2288
      7 C         145.4598  142.0420  157.5324 C.2     1  UNL1        0.2455
      8 N         145.5378  140.6760  156.9178 N.am    1  UNL1       -0.3252
      9 O         146.7148  142.8240  157.7842 O.2     1  UNL1       -0.2703
     10 H         144.7140  140.1627  156.7526 H       1  UNL1        0.1453
     11 H         146.4127  140.2926  156.6796 H       1  UNL1        0.1453
     12 N         140.1274  144.3785  158.9841 N.pl3   1  UNL1       -0.2821
     13 H         139.5352  144.7286  158.2798 H       1  UNL1        0.1551
     14 C         138.4042  144.5812  164.7277 C.3     1  UNL1        0.0538
     15 C         138.8350  144.5305  163.2918 C.ar    1  UNL1        0.0786
     16 C         138.3262  143.4419  162.3941 C.ar    1  UNL1        0.1150
     17 N         138.7570  143.3912  160.9582 N.ar    1  UNL1       -0.2262
     18 C         139.6966  144.4291  160.4200 C.ar    1  UNL1        0.1526
     19 C         140.2055  145.5177  161.3177 C.ar    1  UNL1        0.1328
     20 N         139.7747  145.5684  162.7536 N.ar    1  UNL1       -0.2436
     21 N         144.6939  142.3544  160.4161 N.pl3   1  UNL1       -0.3337
     22 H         145.6394  142.1848  160.2006 H       1  UNL1        0.1468
     23 C         144.2034  142.1847  161.8235 C.3     1  UNL1        0.0724
     24 C         143.5655  140.8942  162.2450 C.3     1  UNL1        0.0410
     25 C         143.0750  140.7246  163.6524 C.3     1  UNL1        0.0939
     26 N         143.2224  141.8455  164.6382 N.pl3   1  UNL1       -0.2931
     27 C         143.8602  143.1360  164.2167 C.3     1  UNL1        0.0939
     28 C         144.3507  143.3056  162.8093 C.3     1  UNL1        0.0410
     29 C         142.7319  141.6759  166.0456 C.ar    1  UNL1        0.1317
     30 C         143.3882  142.4292  167.1645 C.ar    1  UNL1        0.0350
     31 C         142.8977  142.2596  168.5718 C.ar    1  UNL1        0.0147
     32 C         141.7509  141.3367  168.8603 C.ar    1  UNL1        0.0877
     33 C         141.0947  140.5834  167.7414 C.ar    1  UNL1        0.1105
     34 N         141.5852  140.7530  166.3340 N.ar    1  UNL1       -0.2285
     35 C         141.2604  141.1671  170.2676 C.1     1  UNL1        0.1020
     36 N         140.7699  140.9975  171.6750 N.1     1  UNL1       -0.1908
@<TRIPOS>BOND
     1    14    15    1
     2    15    16   ar
     3    16    17   ar
     4    17    18   ar
     5    18    12    1
     6    12     1    1
     7     1     2   ar
     8     2     3   ar
     9     3    21    1
    10    21    23    1
    11    23    24    1
    12    24    25    1
    13    25    26    1
    14    26    29    1
    15    29    30   ar
    16    30    31   ar
    17    31    32   ar
    18    32    35    1
    19    35    36    3
    20    32    33   ar
    21    33    34   ar
    22    26    27    1
    23    27    28    1
    24     3     4   ar
    25     4     7    1
    26     7     8   am
    27     7     9    2
    28     4     5   ar
    29     5     6   ar
    30    18    19   ar
    31    19    20   ar
    32    20    15   ar
    33     6     1   ar
    34    28    23    1
    35    34    29   ar
    36    12    13    1
    37    21    22    1
    38     8    10    1
    39     8    11    1
@<TRIPOS>MOLECULE
*****
 36 39 0 0 0
SMALL
GASTEIGER

@<TRIPOS>ATOM
      1 C         139.3727  141.8680  158.3924 C.ar    1  UNL1        0.1345
      2 C         139.3860  140.7476  159.3898 C.ar    1  UNL1        0.0489
      3 C         139.6427  139.3415  158.9349 C.ar    1  UNL1        0.0533
      4 C         139.8861  139.0557  157.4827 C.ar    1  UNL1        0.0854
      5 C         139.8728  140.1760  156.4853 C.ar    1  UNL1        0.1060
      6 N         139.6161  141.5821  156.9402 N.ar    1  UNL1       -0.2288
      7 C         140.1428  137.6495  157.0278 C.2     1  UNL1        0.2455
      8 N         139.0711  136.8872  156.3064 N.am    1  UNL1       -0.3252
      9 O         141.4711  137.0057  157.2943 O.2     1  UNL1       -0.2703
     10 H         138.1993  137.3098  156.1315 H       1  UNL1        0.1453
     11 H         139.2396  135.9643  156.0079 H       1  UNL1        0.1453
     12 N         139.1160  143.2741  158.8473 N.pl3   1  UNL1       -0.2821
     13 H         138.4781  143.8414  158.3569 H       1  UNL1        0.1551
     14 C         141.9769  145.4411  163.6556 C.3     1  UNL1        0.0538
     15 C         141.2617  144.8994  162.4535 C.ar    1  UNL1        0.0786
     16 C         139.7997  144.5739  162.5342 C.ar    1  UNL1        0.1150
     17 N         139.0845  144.0321  161.3321 N.ar    1  UNL1       -0.2262
     18 C         139.8313  143.8158  160.0494 C.ar    1  UNL1        0.1526
     19 C         141.2933  144.1413  159.9687 C.ar    1  UNL1        0.1328
     20 N         142.0085  144.6831  161.1708 N.ar    1  UNL1       -0.2436
     21 N         139.6560  138.2212  159.9323 N.pl3   1  UNL1       -0.3337
     22 H         139.5838  137.2884  159.6258 H       1  UNL1        0.1468
     23 C         139.7795  138.5221  161.3966 C.3     1  UNL1        0.0724
     24 C         138.6187  138.2737  162.3138 C.3     1  UNL1        0.0410
     25 C         138.7422  138.5746  163.7781 C.3     1  UNL1        0.0939
     26 N         140.0263  139.1239  164.3253 N.pl3   1  UNL1       -0.2931
     27 C         141.1869  139.3723  163.4081 C.3     1  UNL1        0.0939
     28 C         141.0635  139.0714  161.9438 C.3     1  UNL1        0.0410
     29 C         140.1497  139.4248  165.7896 C.ar    1  UNL1        0.1317
     30 C         138.9168  139.5851  166.6288 C.ar    1  UNL1        0.0350
     31 C         139.0402  139.8860  168.0931 C.ar    1  UNL1        0.0147
     32 C         140.3966  140.0267  168.7182 C.ar    1  UNL1        0.0877
     33 C         141.6294  139.8664  167.8789 C.ar    1  UNL1        0.1105
     34 N         141.5060  139.5655  166.4146 N.ar    1  UNL1       -0.2285
     35 C         140.5200  140.3276  170.1825 C.1     1  UNL1        0.1020
     36 N         140.6434  140.6285  171.6468 N.1     1  UNL1       -0.1908
@<TRIPOS>BOND
     1    14    15    1
     2    15    16   ar
     3    16    17   ar
     4    17    18   ar
     5    18    12    1
     6    12     1    1
     7     1     2   ar
     8     2     3   ar
     9     3    21    1
    10    21    23    1
    11    23    24    1
    12    24    25    1
    13    25    26    1
    14    26    29    1
    15    29    30   ar
    16    30    31   ar
    17    31    32   ar
    18    32    35    1
    19    35    36    3
    20    32    33   ar
    21    33    34   ar
    22    26    27    1
    23    27    28    1
    24     3     4   ar
    25     4     7    1
    26     7     8   am
    27     7     9    2
    28     4     5   ar
    29     5     6   ar
    30    18    19   ar
    31    19    20   ar
    32    20    15   ar
    33     6     1   ar
    34    28    23    1
    35    34    29   ar
    36    12    13    1
    37    21    22    1
    38     8    10    1
    39     8    11    1
