@<TRIPOS>MOLECULE
*****
 29 31 0 0 0
SMALL
GASTEIGER

@<TRIPOS>ATOM
      1 C         143.7892  140.4074  164.1633 C.ar    1  UNL1        0.0531
      2 C         144.1331  139.0301  164.6476 C.ar    1  UNL1        0.0042
      3 C         143.7443  138.6030  166.0320 C.ar    1  UNL1       -0.0038
      4 C         143.0116  139.5532  166.9320 C.ar    1  UNL1       -0.0178
      5 C         142.6677  140.9306  166.4477 C.ar    1  UNL1       -0.0038
      6 C         143.0565  141.3577  165.0634 C.ar    1  UNL1        0.0040
      7 C         142.7126  142.7351  164.5791 C.ar    1  UNL1       -0.0002
      8 C         143.7885  143.7708  164.4379 C.ar    1  UNL1       -0.0000
      9 C         143.4446  145.1482  163.9536 C.ar    1  UNL1       -0.0003
     10 C         142.0249  145.4900  163.6105 C.ar    1  UNL1       -0.0043
     11 C         140.9491  144.4543  163.7517 C.ar    1  UNL1       -0.0218
     12 C         141.2930  143.0768  164.2360 C.ar    1  UNL1       -0.0043
     13 C         139.5294  144.7959  163.4086 C.3     1  UNL1        0.0322
     14 C         138.4271  143.8308  163.7299 C.3     1  UNL1        0.0464
     15 C         137.8180  142.9983  162.6408 C.2     1  UNL1        0.0507
     16 O         136.9780  141.8054  162.9894 O.co2   1  UNL1       -0.5492
     17 O         138.0489  143.3586  161.2032 O.co2   1  UNL1       -0.5492
     18 N         143.2071  140.6806  161.6461 N.am    1  UNL1       -0.3253
     19 C         144.1781  140.8345  162.7790 C.2     1  UNL1        0.2427
     20 O         145.5379  141.4156  162.5275 O.2     1  UNL1       -0.2704
     21 H         143.4623  140.9609  160.7375 H       1  UNL1        0.1453
     22 H         142.3146  140.2993  161.8111 H       1  UNL1        0.1453
     23 C         142.6227  139.1261  168.3163 C.3     1  UNL1        0.0526
     24 C         141.8741  140.0700  169.2099 C.ar    1  UNL1       -0.0178
     25 C         142.6236  140.9618  170.1549 C.ar    1  UNL1       -0.0039
     26 C         141.8749  141.9057  171.0485 C.ar    1  UNL1       -0.0003
     27 C         140.3767  141.9579  170.9972 C.ar    1  UNL1       -0.0000
     28 C         139.6272  141.0661  170.0522 C.ar    1  UNL1       -0.0003
     29 C         140.3758  140.1222  169.1586 C.ar    1  UNL1       -0.0039
@<TRIPOS>UNITY_ATOM_ATTR
16 1
charge -1
@<TRIPOS>BOND
     1    18    19   am
     2    19    20    2
     3    19     1    1
     4     1     2   ar
     5     2     3   ar
     6     3     4   ar
     7     4    23    1
     8    23    24    1
     9    24    25   ar
    10    25    26   ar
    11    26    27   ar
    12    27    28   ar
    13    28    29   ar
    14     4     5   ar
    15     5     6   ar
    16     6     7    1
    17     7     8   ar
    18     8     9   ar
    19     9    10   ar
    20    10    11   ar
    21    11    13    1
    22    13    14    1
    23    14    15    1
    24    15    16   ar
    25    15    17   ar
    26    11    12   ar
    27     6     1   ar
    28    12     7   ar
    29    29    24   ar
    30    18    21    1
    31    18    22    1
@<TRIPOS>MOLECULE
*****
 29 31 0 0 0
SMALL
GASTEIGER

@<TRIPOS>ATOM
      1 C         138.5341  140.4755  164.4933 C.ar    1  UNL1        0.0531
      2 C         138.0861  139.3204  165.3389 C.ar    1  UNL1        0.0042
      3 C         138.5665  139.1964  166.7545 C.ar    1  UNL1       -0.0038
      4 C         139.4948  140.2276  167.3245 C.ar    1  UNL1       -0.0178
      5 C         139.9427  141.3827  166.4789 C.ar    1  UNL1       -0.0038
      6 C         139.4624  141.5066  165.0633 C.ar    1  UNL1        0.0040
      7 C         139.9104  142.6617  164.2177 C.ar    1  UNL1       -0.0002
      8 C         139.0901  143.9165  164.1668 C.ar    1  UNL1       -0.0000
      9 C         139.5380  145.0717  163.3212 C.ar    1  UNL1       -0.0003
     10 C         140.8063  144.9720  162.5265 C.ar    1  UNL1       -0.0043
     11 C         141.6266  143.7172  162.5773 C.ar    1  UNL1       -0.0218
     12 C         141.1786  142.5621  163.4230 C.ar    1  UNL1       -0.0043
     13 C         142.8948  143.6175  161.7826 C.3     1  UNL1        0.0322
     14 C         144.2178  143.8542  162.4487 C.3     1  UNL1        0.0464
     15 C         144.8760  142.7505  163.2226 C.2     1  UNL1        0.0507
     16 O         144.6961  142.6663  164.7093 O.co2   1  UNL1       -0.5492
     17 O         145.7141  141.7311  162.5096 O.co2   1  UNL1       -0.5492
     18 N         138.6970  139.7866  161.9935 N.am    1  UNL1       -0.3253
     19 C         138.0537  140.5994  163.0777 C.2     1  UNL1        0.2427
     20 O         136.9300  141.5361  162.7463 O.2     1  UNL1       -0.2704
     21 H         138.3817  139.8680  161.0644 H       1  UNL1        0.1453
     22 H         139.4346  139.1719  162.2110 H       1  UNL1        0.1453
     23 C         139.9752  140.1036  168.7400 C.3     1  UNL1        0.0526
     24 C         141.0008  141.0610  169.2706 C.ar    1  UNL1       -0.0178
     25 C         140.5847  142.4267  169.7310 C.ar    1  UNL1       -0.0039
     26 C         141.6104  143.3840  170.2615 C.ar    1  UNL1       -0.0003
     27 C         143.0521  142.9759  170.3316 C.ar    1  UNL1       -0.0000
     28 C         143.4681  141.6103  169.8711 C.ar    1  UNL1       -0.0003
     29 C         142.4425  140.6528  169.3406 C.ar    1  UNL1       -0.0039
@<TRIPOS>UNITY_ATOM_ATTR
16 1
charge -1
@<TRIPOS>BOND
     1    18    19   am
     2    19    20    2
     3    19     1    1
     4     1     2   ar
     5     2     3   ar
     6     3     4   ar
     7     4    23    1
     8    23    24    1
     9    24    25   ar
    10    25    26   ar
    11    26    27   ar
    12    27    28   ar
    13    28    29   ar
    14     4     5   ar
    15     5     6   ar
    16     6     7    1
    17     7     8   ar
    18     8     9   ar
    19     9    10   ar
    20    10    11   ar
    21    11    13    1
    22    13    14    1
    23    14    15    1
    24    15    16   ar
    25    15    17   ar
    26    11    12   ar
    27     6     1   ar
    28    12     7   ar
    29    29    24   ar
    30    18    21    1
    31    18    22    1
@<TRIPOS>MOLECULE
*****
 29 31 0 0 0
SMALL
GASTEIGER

@<TRIPOS>ATOM
      1 C         139.9791  138.5060  164.5899 C.ar    1  UNL1        0.0531
      2 C         138.6812  138.1625  165.2586 C.ar    1  UNL1        0.0042
      3 C         138.3709  138.7102  166.6201 C.ar    1  UNL1       -0.0038
      4 C         139.3587  139.6014  167.3130 C.ar    1  UNL1       -0.0178
      5 C         140.6566  139.9449  166.6443 C.ar    1  UNL1       -0.0038
      6 C         140.9669  139.3972  165.2828 C.ar    1  UNL1        0.0040
      7 C         142.2650  139.7408  164.6141 C.ar    1  UNL1       -0.0002
      8 C         143.5294  139.0501  165.0315 C.ar    1  UNL1       -0.0000
      9 C         144.8274  139.3936  164.3628 C.ar    1  UNL1       -0.0003
     10 C         144.8610  140.4278  163.2768 C.ar    1  UNL1       -0.0043
     11 C         143.5966  141.1184  162.8594 C.ar    1  UNL1       -0.0218
     12 C         142.2985  140.7749  163.5281 C.ar    1  UNL1       -0.0043
     13 C         143.6302  142.1526  161.7734 C.3     1  UNL1        0.0322
     14 C         142.5975  143.2400  161.7412 C.3     1  UNL1        0.0464
     15 C         142.8277  144.5155  162.4963 C.2     1  UNL1        0.0507
     16 O         141.6641  145.2654  163.0741 O.co2   1  UNL1       -0.5492
     17 O         144.2213  145.0410  162.6737 O.co2   1  UNL1       -0.5492
     18 N         141.2717  136.8348  163.0779 N.am    1  UNL1       -0.3253
     19 C         140.2894  137.9583  163.2284 C.2     1  UNL1        0.2427
     20 O         139.6173  138.5342  162.0173 O.2     1  UNL1       -0.2704
     21 H         141.4753  136.4753  162.1842 H       1  UNL1        0.1453
     22 H         141.7128  136.4568  163.8727 H       1  UNL1        0.1453
     23 C         139.0484  140.1490  168.6746 C.3     1  UNL1        0.0526
     24 C         140.0920  140.9180  169.4293 C.ar    1  UNL1       -0.0178
     25 C         140.9929  140.2089  170.3967 C.ar    1  UNL1       -0.0039
     26 C         142.0364  140.9778  171.1514 C.ar    1  UNL1       -0.0003
     27 C         142.1792  142.4558  170.9389 C.ar    1  UNL1       -0.0000
     28 C         141.2784  143.1649  169.9716 C.ar    1  UNL1       -0.0003
     29 C         140.2347  142.3959  169.2168 C.ar    1  UNL1       -0.0039
@<TRIPOS>UNITY_ATOM_ATTR
16 1
charge -1
@<TRIPOS>BOND
     1    18    19   am
     2    19    20    2
     3    19     1    1
     4     1     2   ar
     5     2     3   ar
     6     3     4   ar
     7     4    23    1
     8    23    24    1
     9    24    25   ar
    10    25    26   ar
    11    26    27   ar
    12    27    28   ar
    13    28    29   ar
    14     4     5   ar
    15     5     6   ar
    16     6     7    1
    17     7     8   ar
    18     8     9   ar
    19     9    10   ar
    20    10    11   ar
    21    11    13    1
    22    13    14    1
    23    14    15    1
    24    15    16   ar
    25    15    17   ar
    26    11    12   ar
    27     6     1   ar
    28    12     7   ar
    29    29    24   ar
    30    18    21    1
    31    18    22    1
@<TRIPOS>MOLECULE
*****
 29 31 0 0 0
SMALL
GASTEIGER

@<TRIPOS>ATOM
      1 C         142.8179  143.3641  163.4327 C.ar    1  UNL1        0.0531
      2 C         144.1151  143.6062  164.1457 C.ar    1  UNL1        0.0042
      3 C         144.2530  143.2453  165.5951 C.ar    1  UNL1       -0.0038
      4 C         143.0937  142.6423  166.3315 C.ar    1  UNL1       -0.0178
      5 C         141.7965  142.4002  165.6184 C.ar    1  UNL1       -0.0038
      6 C         141.6586  142.7611  164.1690 C.ar    1  UNL1        0.0040
      7 C         140.3612  142.5189  163.4560 C.ar    1  UNL1       -0.0002
      8 C         139.2977  143.5767  163.4540 C.ar    1  UNL1       -0.0000
      9 C         138.0004  143.3346  162.7410 C.ar    1  UNL1       -0.0003
     10 C         137.7666  142.0346  162.0299 C.ar    1  UNL1       -0.0043
     11 C         138.8302  140.9768  162.0319 C.ar    1  UNL1       -0.0218
     12 C         140.1275  141.2190  162.7449 C.ar    1  UNL1       -0.0043
     13 C         138.5964  139.6770  161.3208 C.3     1  UNL1        0.0322
     14 C         138.1578  138.4681  162.0930 C.3     1  UNL1        0.0464
     15 C         139.1260  137.7628  162.9959 C.2     1  UNL1        0.0507
     16 O         138.7958  137.5714  164.4465 O.co2   1  UNL1       -0.5492
     17 O         140.4244  137.2490  162.4481 O.co2   1  UNL1       -0.5492
     18 N         142.2350  145.1030  161.5925 N.am    1  UNL1       -0.3253
     19 C         142.6800  143.7249  161.9833 C.2     1  UNL1        0.2427
     20 O         142.9872  142.7077  160.9246 O.2     1  UNL1       -0.2704
     21 H         142.1445  145.3399  160.6412 H       1  UNL1        0.1453
     22 H         142.0333  145.7707  162.2874 H       1  UNL1        0.1453
     23 C         143.2316  142.2815  167.7809 C.3     1  UNL1        0.0526
     24 C         142.0247  141.8652  168.5682 C.ar    1  UNL1       -0.0178
     25 C         141.6744  140.4119  168.6919 C.ar    1  UNL1       -0.0039
     26 C         140.4675  139.9956  169.4793 C.ar    1  UNL1       -0.0003
     27 C         139.6107  141.0327  170.1430 C.ar    1  UNL1       -0.0000
     28 C         139.9609  142.4859  170.0194 C.ar    1  UNL1       -0.0003
     29 C         141.1679  142.9022  169.2320 C.ar    1  UNL1       -0.0039
@<TRIPOS>UNITY_ATOM_ATTR
16 1
charge -1
@<TRIPOS>BOND
     1    18    19   am
     2    19    20    2
     3    19     1    1
     4     1     2   ar
     5     2     3   ar
     6     3     4   ar
     7     4    23    1
     8    23    24    1
     9    24    25   ar
    10    25    26   ar
    11    26    27   ar
    12    27    28   ar
    13    28    29   ar
    14     4     5   ar
    15     5     6   ar
    16     6     7    1
    17     7     8   ar
    18     8     9   ar
    19     9    10   ar
    20    10    11   ar
    21    11    13    1
    22    13    14    1
    23    14    15    1
    24    15    16   ar
    25    15    17   ar
    26    11    12   ar
    27     6     1   ar
    28    12     7   ar
    29    29    24   ar
    30    18    21    1
    31    18    22    1
@<TRIPOS>MOLECULE
*****
 29 31 0 0 0
SMALL
GASTEIGER

@<TRIPOS>ATOM
      1 C         142.8090  138.9179  163.5922 C.ar    1  UNL1        0.0531
      2 C         144.0513  138.8248  164.4276 C.ar    1  UNL1        0.0042
      3 C         143.9631  138.9520  165.9196 C.ar    1  UNL1       -0.0038
      4 C         142.6325  139.1722  166.5762 C.ar    1  UNL1       -0.0178
      5 C         141.3902  139.2653  165.7407 C.ar    1  UNL1       -0.0038
      6 C         141.4785  139.1382  164.2487 C.ar    1  UNL1        0.0040
      7 C         140.2361  139.2313  163.4133 C.ar    1  UNL1       -0.0002
      8 C         139.4999  137.9841  163.0225 C.ar    1  UNL1       -0.0000
      9 C         138.2576  138.0772  162.1871 C.ar    1  UNL1       -0.0003
     10 C         137.7514  139.4174  161.7424 C.ar    1  UNL1       -0.0043
     11 C         138.4876  140.6645  162.1332 C.ar    1  UNL1       -0.0218
     12 C         139.7300  140.5714  162.9686 C.ar    1  UNL1       -0.0043
     13 C         137.9816  142.0047  161.6885 C.3     1  UNL1        0.0322
     14 C         137.8524  143.1239  162.6788 C.3     1  UNL1        0.0464
     15 C         138.8645  144.2310  162.6956 C.2     1  UNL1        0.0507
     16 O         138.5567  145.5386  162.0281 O.co2   1  UNL1       -0.5492
     17 O         140.1841  144.0305  163.3798 O.co2   1  UNL1       -0.5492
     18 N         142.8301  137.4372  161.4575 N.am    1  UNL1       -0.3253
     19 C         142.8973  138.7908  162.1002 C.2     1  UNL1        0.2427
     20 O         143.0528  140.0173  161.2508 O.2     1  UNL1       -0.2704
     21 H         142.8880  137.3537  160.4783 H       1  UNL1        0.1453
     22 H         142.7281  136.6321  162.0149 H       1  UNL1        0.1453
     23 C         142.5443  139.2993  168.0682 C.3     1  UNL1        0.0526
     24 C         141.7112  140.3861  168.6803 C.ar    1  UNL1       -0.0178
     25 C         140.3872  140.0556  169.3031 C.ar    1  UNL1       -0.0039
     26 C         139.5542  141.1425  169.9153 C.ar    1  UNL1       -0.0003
     27 C         140.0450  142.5598  169.9046 C.ar    1  UNL1       -0.0000
     28 C         141.3690  142.8904  169.2818 C.ar    1  UNL1       -0.0003
     29 C         142.2021  141.8035  168.6696 C.ar    1  UNL1       -0.0039
@<TRIPOS>UNITY_ATOM_ATTR
16 1
charge -1
@<TRIPOS>BOND
     1    18    19   am
     2    19    20    2
     3    19     1    1
     4     1     2   ar
     5     2     3   ar
     6     3     4   ar
     7     4    23    1
     8    23    24    1
     9    24    25   ar
    10    25    26   ar
    11    26    27   ar
    12    27    28   ar
    13    28    29   ar
    14     4     5   ar
    15     5     6   ar
    16     6     7    1
    17     7     8   ar
    18     8     9   ar
    19     9    10   ar
    20    10    11   ar
    21    11    13    1
    22    13    14    1
    23    14    15    1
    24    15    16   ar
    25    15    17   ar
    26    11    12   ar
    27     6     1   ar
    28    12     7   ar
    29    29    24   ar
    30    18    21    1
    31    18    22    1
@<TRIPOS>MOLECULE
*****
 29 31 0 0 0
SMALL
GASTEIGER

@<TRIPOS>ATOM
      1 C         138.9256  139.4590  164.5116 C.ar    1  UNL1        0.0531
      2 C         138.0318  138.8354  165.5422 C.ar    1  UNL1        0.0042
      3 C         138.3165  139.0349  167.0014 C.ar    1  UNL1       -0.0038
      4 C         139.4950  139.8579  167.4299 C.ar    1  UNL1       -0.0178
      5 C         140.3888  140.4815  166.3993 C.ar    1  UNL1       -0.0038
      6 C         140.1041  140.2820  164.9402 C.ar    1  UNL1        0.0040
      7 C         140.9980  140.9057  163.9095 C.ar    1  UNL1       -0.0002
      8 C         142.0011  140.0635  163.1784 C.ar    1  UNL1       -0.0000
      9 C         142.8950  140.6871  162.1478 C.ar    1  UNL1       -0.0003
     10 C         142.7858  142.1529  161.8483 C.ar    1  UNL1       -0.0043
     11 C         141.7827  142.9950  162.5795 C.ar    1  UNL1       -0.0218
     12 C         140.8888  142.3714  163.6101 C.ar    1  UNL1       -0.0043
     13 C         141.6734  144.4607  162.2800 C.3     1  UNL1        0.0322
     14 C         140.5934  145.2791  162.9233 C.3     1  UNL1        0.0464
     15 C         139.2973  145.5087  162.2040 C.2     1  UNL1        0.0507
     16 O         139.2057  146.5637  161.1416 O.co2   1  UNL1       -0.5492
     17 O         138.0927  144.6833  162.5471 O.co2   1  UNL1       -0.5492
     18 N         137.8125  140.2627  162.3059 N.am    1  UNL1       -0.3253
     19 C         138.6410  139.2596  163.0524 C.2     1  UNL1        0.2427
     20 O         139.1847  138.0569  162.3397 O.2     1  UNL1       -0.2704
     21 H         137.6257  140.1318  161.3482 H       1  UNL1        0.1453
     22 H         137.4556  141.0521  162.7737 H       1  UNL1        0.1453
     23 C         139.7796  140.0574  168.8891 C.3     1  UNL1        0.0526
     24 C         140.8525  141.0130  169.3202 C.ar    1  UNL1       -0.0178
     25 C         140.5052  142.4378  169.6357 C.ar    1  UNL1       -0.0039
     26 C         141.5780  143.3934  170.0667 C.ar    1  UNL1       -0.0003
     27 C         142.9981  142.9242  170.1823 C.ar    1  UNL1       -0.0000
     28 C         143.3453  141.4995  169.8669 C.ar    1  UNL1       -0.0003
     29 C         142.2725  140.5438  169.4358 C.ar    1  UNL1       -0.0039
@<TRIPOS>UNITY_ATOM_ATTR
16 1
charge -1
@<TRIPOS>BOND
     1    18    19   am
     2    19    20    2
     3    19     1    1
     4     1     2   ar
     5     2     3   ar
     6     3     4   ar
     7     4    23    1
     8    23    24    1
     9    24    25   ar
    10    25    26   ar
    11    26    27   ar
    12    27    28   ar
    13    28    29   ar
    14     4     5   ar
    15     5     6   ar
    16     6     7    1
    17     7     8   ar
    18     8     9   ar
    19     9    10   ar
    20    10    11   ar
    21    11    13    1
    22    13    14    1
    23    14    15    1
    24    15    16   ar
    25    15    17   ar
    26    11    12   ar
    27     6     1   ar
    28    12     7   ar
    29    29    24   ar
    30    18    21    1
    31    18    22    1
@<TRIPOS>MOLECULE
*****
 29 31 0 0 0
SMALL
GASTEIGER

@<TRIPOS>ATOM
      1 C         144.2043  140.4749  164.1542 C.ar    1  UNL1        0.0531
      2 C         144.5953  139.1257  164.6803 C.ar    1  UNL1        0.0042
      3 C         144.0476  138.6444  165.9912 C.ar    1  UNL1       -0.0038
      4 C         143.1090  139.5122  166.7760 C.ar    1  UNL1       -0.0178
      5 C         142.7181  140.8614  166.2499 C.ar    1  UNL1       -0.0038
      6 C         143.2658  141.3428  164.9390 C.ar    1  UNL1        0.0040
      7 C         142.8748  142.6920  164.4129 C.ar    1  UNL1       -0.0002
      8 C         143.7419  143.8845  164.6885 C.ar    1  UNL1       -0.0000
      9 C         143.3510  145.2338  164.1625 C.ar    1  UNL1       -0.0003
     10 C         142.0929  145.3905  163.3608 C.ar    1  UNL1       -0.0043
     11 C         141.2258  144.1980  163.0851 C.ar    1  UNL1       -0.0218
     12 C         141.6167  142.8487  163.6112 C.ar    1  UNL1       -0.0043
     13 C         139.9677  144.3547  162.2835 C.3     1  UNL1        0.0322
     14 C         139.9585  144.0016  160.8257 C.3     1  UNL1        0.0464
     15 C         140.8060  144.7769  159.8608 C.2     1  UNL1        0.0507
     16 O         140.1684  145.7619  158.9264 O.co2   1  UNL1       -0.5492
     17 O         142.2909  144.5672  159.8305 O.co2   1  UNL1       -0.5492
     18 N         145.9240  141.8921  162.8184 N.am    1  UNL1       -0.3253
     19 C         144.7520  140.9563  162.8434 C.2     1  UNL1        0.2427
     20 O         144.1277  140.5019  161.5575 O.2     1  UNL1       -0.2704
     21 H         146.2834  142.2080  161.9581 H       1  UNL1        0.1453
     22 H         146.3338  142.1904  163.6624 H       1  UNL1        0.1453
     23 C         142.5614  139.0308  168.0868 C.3     1  UNL1        0.0526
     24 C         141.8647  139.9898  169.0061 C.ar    1  UNL1       -0.0178
     25 C         140.3714  140.1237  168.9586 C.ar    1  UNL1       -0.0039
     26 C         139.6748  141.0826  169.8779 C.ar    1  UNL1       -0.0003
     27 C         140.4714  141.9076  170.8447 C.ar    1  UNL1       -0.0000
     28 C         141.9646  141.7738  170.8923 C.ar    1  UNL1       -0.0003
     29 C         142.6613  140.8148  169.9729 C.ar    1  UNL1       -0.0039
@<TRIPOS>UNITY_ATOM_ATTR
16 1
charge -1
@<TRIPOS>BOND
     1    18    19   am
     2    19    20    2
     3    19     1    1
     4     1     2   ar
     5     2     3   ar
     6     3     4   ar
     7     4    23    1
     8    23    24    1
     9    24    25   ar
    10    25    26   ar
    11    26    27   ar
    12    27    28   ar
    13    28    29   ar
    14     4     5   ar
    15     5     6   ar
    16     6     7    1
    17     7     8   ar
    18     8     9   ar
    19     9    10   ar
    20    10    11   ar
    21    11    13    1
    22    13    14    1
    23    14    15    1
    24    15    16   ar
    25    15    17   ar
    26    11    12   ar
    27     6     1   ar
    28    12     7   ar
    29    29    24   ar
    30    18    21    1
    31    18    22    1
@<TRIPOS>MOLECULE
*****
 29 31 0 0 0
SMALL
GASTEIGER

@<TRIPOS>ATOM
      1 C         140.4156  140.9621  167.2739 C.ar    1  UNL1        0.0531
      2 C         139.4068  139.9298  167.6819 C.ar    1  UNL1        0.0042
      3 C         138.8463  138.9843  166.6611 C.ar    1  UNL1       -0.0038
      4 C         139.2946  139.0712  165.2323 C.ar    1  UNL1       -0.0178
      5 C         140.3034  140.1035  164.8243 C.ar    1  UNL1       -0.0038
      6 C         140.8639  141.0490  165.8451 C.ar    1  UNL1        0.0040
      7 C         141.8728  142.0814  165.4370 C.ar    1  UNL1       -0.0002
      8 C         143.3196  141.8952  165.7863 C.ar    1  UNL1       -0.0000
      9 C         144.3285  142.9275  165.3783 C.ar    1  UNL1       -0.0003
     10 C         143.8905  144.1460  164.6209 C.ar    1  UNL1       -0.0043
     11 C         142.4437  144.3321  164.2716 C.ar    1  UNL1       -0.0218
     12 C         141.4348  143.2998  164.6797 C.ar    1  UNL1       -0.0043
     13 C         142.0057  145.5506  163.5143 C.3     1  UNL1        0.0322
     14 C         140.7720  145.5009  162.6625 C.3     1  UNL1        0.0464
     15 C         140.8430  144.9445  161.2713 C.2     1  UNL1        0.0507
     16 O         142.1761  144.6912  160.6320 O.co2   1  UNL1       -0.5492
     17 O         139.5810  144.6414  160.5194 O.co2   1  UNL1       -0.5492
     18 N         140.3339  143.2459  168.5098 N.am    1  UNL1       -0.3253
     19 C         140.9761  141.9075  168.2946 C.2     1  UNL1        0.2427
     20 O         142.1789  141.5147  169.1002 O.2     1  UNL1       -0.2704
     21 H         140.7018  143.8664  169.1798 H       1  UNL1        0.1453
     22 H         139.5444  143.5037  167.9811 H       1  UNL1        0.1453
     23 C         138.7340  138.1258  164.2116 C.3     1  UNL1        0.0526
     24 C         138.8139  138.4639  162.7524 C.ar    1  UNL1       -0.0178
     25 C         139.9497  137.9424  161.9227 C.ar    1  UNL1       -0.0039
     26 C         140.0296  138.2806  160.4636 C.ar    1  UNL1       -0.0003
     27 C         138.9738  139.1402  159.8340 C.ar    1  UNL1       -0.0000
     28 C         137.8381  139.6616  160.6635 C.ar    1  UNL1       -0.0003
     29 C         137.7581  139.3235  162.1228 C.ar    1  UNL1       -0.0039
@<TRIPOS>UNITY_ATOM_ATTR
16 1
charge -1
@<TRIPOS>BOND
     1    18    19   am
     2    19    20    2
     3    19     1    1
     4     1     2   ar
     5     2     3   ar
     6     3     4   ar
     7     4    23    1
     8    23    24    1
     9    24    25   ar
    10    25    26   ar
    11    26    27   ar
    12    27    28   ar
    13    28    29   ar
    14     4     5   ar
    15     5     6   ar
    16     6     7    1
    17     7     8   ar
    18     8     9   ar
    19     9    10   ar
    20    10    11   ar
    21    11    13    1
    22    13    14    1
    23    14    15    1
    24    15    16   ar
    25    15    17   ar
    26    11    12   ar
    27     6     1   ar
    28    12     7   ar
    29    29    24   ar
    30    18    21    1
    31    18    22    1
@<TRIPOS>MOLECULE
*****
 29 31 0 0 0
SMALL
GASTEIGER

@<TRIPOS>ATOM
      1 C         138.9556  141.5741  163.6392 C.ar    1  UNL1        0.0531
      2 C         137.9669  140.5452  164.1015 C.ar    1  UNL1        0.0042
      3 C         138.1230  139.9080  165.4505 C.ar    1  UNL1       -0.0038
      4 C         139.2677  140.2997  166.3371 C.ar    1  UNL1       -0.0178
      5 C         140.2564  141.3286  165.8747 C.ar    1  UNL1       -0.0038
      6 C         140.1004  141.9658  164.5258 C.ar    1  UNL1        0.0040
      7 C         141.0892  142.9947  164.0634 C.ar    1  UNL1       -0.0002
      8 C         140.8011  144.4535  164.2607 C.ar    1  UNL1       -0.0000
      9 C         141.7898  145.4824  163.7984 C.ar    1  UNL1       -0.0003
     10 C         143.0666  145.0525  163.1388 C.ar    1  UNL1       -0.0043
     11 C         143.3546  143.5937  162.9414 C.ar    1  UNL1       -0.0218
     12 C         142.3659  142.5648  163.4038 C.ar    1  UNL1       -0.0043
     13 C         144.6314  143.1638  162.2818 C.3     1  UNL1        0.0322
     14 C         144.5983  142.1646  161.1636 C.3     1  UNL1        0.0464
     15 C         144.1188  142.5768  159.8034 C.2     1  UNL1        0.0507
     16 O         145.0727  142.5958  158.6459 O.co2   1  UNL1       -0.5492
     17 O         142.6855  142.9699  159.6006 O.co2   1  UNL1       -0.5492
     18 N         137.8027  143.3145  162.0927 N.am    1  UNL1       -0.3253
     19 C         138.7996  142.2113  162.2902 C.2     1  UNL1        0.2427
     20 O         139.6404  141.7453  161.1389 O.2     1  UNL1       -0.2704
     21 H         137.7002  143.7327  161.2074 H       1  UNL1        0.1453
     22 H         137.2508  143.6204  162.8484 H       1  UNL1        0.1453
     23 C         139.4238  139.6625  167.6860 C.3     1  UNL1        0.0526
     24 C         140.3026  140.3014  168.7201 C.ar    1  UNL1       -0.0178
     25 C         141.7263  139.8547  168.8740 C.ar    1  UNL1       -0.0039
     26 C         142.6052  140.4936  169.9081 C.ar    1  UNL1       -0.0003
     27 C         142.0604  141.5791  170.7883 C.ar    1  UNL1       -0.0000
     28 C         140.6368  142.0258  170.6345 C.ar    1  UNL1       -0.0003
     29 C         139.7578  141.3869  169.6003 C.ar    1  UNL1       -0.0039
@<TRIPOS>UNITY_ATOM_ATTR
16 1
charge -1
@<TRIPOS>BOND
     1    18    19   am
     2    19    20    2
     3    19     1    1
     4     1     2   ar
     5     2     3   ar
     6     3     4   ar
     7     4    23    1
     8    23    24    1
     9    24    25   ar
    10    25    26   ar
    11    26    27   ar
    12    27    28   ar
    13    28    29   ar
    14     4     5   ar
    15     5     6   ar
    16     6     7    1
    17     7     8   ar
    18     8     9   ar
    19     9    10   ar
    20    10    11   ar
    21    11    13    1
    22    13    14    1
    23    14    15    1
    24    15    16   ar
    25    15    17   ar
    26    11    12   ar
    27     6     1   ar
    28    12     7   ar
    29    29    24   ar
    30    18    21    1
    31    18    22    1
