@<TRIPOS>MOLECULE
*****
 39 43 0 0 0
SMALL
GASTEIGER

@<TRIPOS>ATOM
      1 C         142.2659  138.6588  162.1168 C.3     1  UNL1        0.0758
      2 C         143.5061  138.5420  161.2812 C.3     1  UNL1        0.0370
      3 C         143.3962  138.3866  159.7934 C.3     1  UNL1        0.0741
      4 N         142.0460  138.3480  159.1411 N.3     1  UNL1       -0.2688
      5 C         140.8057  138.4648  159.9766 C.3     1  UNL1        0.0741
      6 C         140.9157  138.6202  161.4645 C.3     1  UNL1        0.0370
      7 C         142.8779  140.8053  170.1647 C.3     1  UNL1        0.0897
      8 N         142.7679  140.6499  168.6768 N.3     1  UNL1       -0.2683
      9 C         142.7057  139.2803  168.0683 C.3     1  UNL1        0.0940
     10 C         142.5958  139.1249  166.5804 C.3     1  UNL1        0.1125
     11 N         142.5480  140.3391  165.7010 N.am    1  UNL1       -0.2593
     12 C         142.4381  140.1838  164.2132 C.2     1  UNL1        0.3042
     13 O         142.3903  141.3980  163.3338 O.2     1  UNL1       -0.2526
     14 N         142.3759  138.8142  163.6047 N.am    1  UNL1       -0.2903
     15 C         142.6102  141.7087  166.3095 C.3     1  UNL1        0.1153
     16 C         142.7201  141.8641  167.7974 C.3     1  UNL1        0.0969
     17 H         142.4073  138.0172  164.1818 H       1  UNL1        0.1509
     18 C         142.5624  142.9230  165.4301 C.ar    1  UNL1       -0.0029
     19 C         143.8368  143.5581  164.9585 C.ar    1  UNL1       -0.0026
     20 C         143.7890  144.7724  164.0791 C.ar    1  UNL1       -0.0003
     21 C         142.4667  145.3516  163.6714 C.ar    1  UNL1       -0.0000
     22 C         141.1923  144.7164  164.1431 C.ar    1  UNL1       -0.0003
     23 C         141.2401  143.5022  165.0225 C.ar    1  UNL1       -0.0026
     24 C         141.9361  138.1927  157.6532 C.3     1  UNL1        0.1007
     25 C         142.7065  137.1128  156.9529 C.ar    1  UNL1        0.0129
     26 C         143.5995  137.2975  155.7619 C.ar    1  UNL1        0.0176
     27 C         144.1641  135.9576  155.3936 C.ar    1  UNL1        0.0799
     28 N         143.6200  134.9447  156.3570 N.ar    1  UNL1       -0.3038
     29 C         142.7192  135.6587  157.3207 C.ar    1  UNL1        0.0772
     30 C         143.9235  133.4757  156.3567 C.ar    1  UNL1        0.0640
     31 C         143.6067  132.6446  155.1488 C.ar    1  UNL1        0.0175
     32 C         143.9102  131.1756  155.1486 C.ar    1  UNL1        0.0053
     33 C         144.5304  130.5377  156.3561 C.ar    1  UNL1        0.0715
     34 C         144.8472  131.3688  157.5641 C.ar    1  UNL1        0.0053
     35 C         144.5437  132.8377  157.5643 C.ar    1  UNL1        0.0175
     36 C         144.8339  129.0688  156.3559 C.3     1  UNL1        0.4186
     37 F         145.1374  127.5998  156.3556 F       1  UNL1       -0.1659
     38 F         145.3147  129.1683  154.9386 F       1  UNL1       -0.1659
     39 F         144.3531  128.9692  157.7732 F       1  UNL1       -0.1659
@<TRIPOS>BOND
     1     7     8    1
     2     8     9    1
     3     9    10    1
     4    10    11    1
     5    11    12   am
     6    12    13    2
     7    12    14   am
     8    14     1    1
     9     1     2    1
    10     2     3    1
    11     3     4    1
    12     4    24    1
    13    24    25    1
    14    25    26   ar
    15    26    27   ar
    16    27    28   ar
    17    28    30    1
    18    30    31   ar
    19    31    32   ar
    20    32    33   ar
    21    33    36    1
    22    36    37    1
    23    36    38    1
    24    36    39    1
    25    33    34   ar
    26    34    35   ar
    27    28    29   ar
    28     4     5    1
    29     5     6    1
    30    11    15    1
    31    15    18    1
    32    18    19   ar
    33    19    20   ar
    34    20    21   ar
    35    21    22   ar
    36    22    23   ar
    37    15    16    1
    38    16     8    1
    39     6     1    1
    40    23    18   ar
    41    29    25   ar
    42    35    30   ar
    43    14    17    1
@<TRIPOS>MOLECULE
*****
 39 43 0 0 0
SMALL
GASTEIGER

@<TRIPOS>ATOM
      1 C         141.3155  138.8470  161.7495 C.3     1  UNL1        0.0758
      2 C         140.5285  139.4625  160.6307 C.3     1  UNL1        0.0370
      3 C         140.9652  139.2649  159.2094 C.3     1  UNL1        0.0741
      4 N         142.1888  138.4519  158.9068 N.3     1  UNL1       -0.2688
      5 C         142.9758  137.8363  160.0256 C.3     1  UNL1        0.0741
      6 C         142.5392  138.0339  161.4470 C.3     1  UNL1        0.0370
      7 C         139.4951  141.0952  169.5842 C.3     1  UNL1        0.0897
      8 N         139.9318  140.8977  168.1628 N.3     1  UNL1       -0.2683
      9 C         139.5689  139.6373  167.4350 C.3     1  UNL1        0.0940
     10 C         140.0056  139.4397  166.0137 C.3     1  UNL1        0.1125
     11 N         140.8051  140.5025  165.3201 N.am    1  UNL1       -0.2593
     12 C         141.2417  140.3050  163.8987 C.2     1  UNL1        0.3042
     13 O         142.0412  141.3678  163.2051 O.2     1  UNL1       -0.2526
     14 N         140.8789  139.0446  163.1709 N.am    1  UNL1       -0.2903
     15 C         141.1679  141.7629  166.0478 C.3     1  UNL1        0.1153
     16 C         140.7313  141.9605  167.4692 C.3     1  UNL1        0.0969
     17 H         140.3541  138.3470  163.6262 H       1  UNL1        0.1509
     18 C         141.9674  142.8259  165.3542 C.ar    1  UNL1       -0.0029
     19 C         141.2690  143.9085  164.5862 C.ar    1  UNL1       -0.0026
     20 C         142.0685  144.9714  163.8925 C.ar    1  UNL1       -0.0003
     21 C         143.5665  144.9516  163.9670 C.ar    1  UNL1       -0.0000
     22 C         144.2650  143.8689  164.7351 C.ar    1  UNL1       -0.0003
     23 C         143.4655  142.8060  165.4287 C.ar    1  UNL1       -0.0026
     24 C         142.6254  138.2543  157.4854 C.3     1  UNL1        0.1007
     25 C         142.3913  136.9382  156.8049 C.ar    1  UNL1        0.0129
     26 C         141.1701  136.5550  156.0227 C.ar    1  UNL1        0.0176
     27 C         141.3613  135.1542  155.5215 C.ar    1  UNL1        0.0799
     28 N         142.7008  134.6717  155.9940 N.ar    1  UNL1       -0.3038
     29 C         143.3373  135.7743  156.7872 C.ar    1  UNL1        0.0772
     30 C         143.2987  133.3233  155.7212 C.ar    1  UNL1        0.0640
     31 C         142.8627  132.5388  154.5194 C.ar    1  UNL1        0.0175
     32 C         143.4606  131.1904  154.2466 C.ar    1  UNL1        0.0053
     33 C         144.4945  130.6265  155.1756 C.ar    1  UNL1        0.0715
     34 C         144.9305  131.4110  156.3776 C.ar    1  UNL1        0.0053
     35 C         144.3325  132.7594  156.6503 C.ar    1  UNL1        0.0175
     36 C         145.0923  129.2782  154.9028 C.3     1  UNL1        0.4186
     37 F         145.6902  127.9298  154.6300 F       1  UNL1       -0.1659
     38 F         145.1444  129.5975  153.4382 F       1  UNL1       -0.1659
     39 F         145.0402  128.9588  156.3675 F       1  UNL1       -0.1659
@<TRIPOS>BOND
     1     7     8    1
     2     8     9    1
     3     9    10    1
     4    10    11    1
     5    11    12   am
     6    12    13    2
     7    12    14   am
     8    14     1    1
     9     1     2    1
    10     2     3    1
    11     3     4    1
    12     4    24    1
    13    24    25    1
    14    25    26   ar
    15    26    27   ar
    16    27    28   ar
    17    28    30    1
    18    30    31   ar
    19    31    32   ar
    20    32    33   ar
    21    33    36    1
    22    36    37    1
    23    36    38    1
    24    36    39    1
    25    33    34   ar
    26    34    35   ar
    27    28    29   ar
    28     4     5    1
    29     5     6    1
    30    11    15    1
    31    15    18    1
    32    18    19   ar
    33    19    20   ar
    34    20    21   ar
    35    21    22   ar
    36    22    23   ar
    37    15    16    1
    38    16     8    1
    39     6     1    1
    40    23    18   ar
    41    29    25   ar
    42    35    30   ar
    43    14    17    1
@<TRIPOS>MOLECULE
*****
 39 43 0 0 0
SMALL
GASTEIGER

@<TRIPOS>ATOM
      1 C         141.8660  139.2252  160.0148 C.3     1  UNL1        0.0758
      2 C         142.4167  138.2317  160.9943 C.3     1  UNL1        0.0370
      3 C         141.5423  137.6920  162.0871 C.3     1  UNL1        0.0741
      4 N         140.1171  138.1459  162.2003 N.3     1  UNL1       -0.2688
      5 C         139.5663  139.1394  161.2207 C.3     1  UNL1        0.0741
      6 C         140.4407  139.6791  160.1280 C.3     1  UNL1        0.0370
      7 C         146.4657  141.1185  153.3060 C.3     1  UNL1        0.0897
      8 N         145.5913  140.5788  154.3988 N.3     1  UNL1       -0.2683
      9 C         145.3637  141.3839  155.6437 C.3     1  UNL1        0.0940
     10 C         144.4892  140.8442  156.7365 C.3     1  UNL1        0.1125
     11 N         143.8424  139.4995  156.5843 N.am    1  UNL1       -0.2593
     12 C         142.9680  138.9598  157.6771 C.2     1  UNL1        0.3042
     13 O         142.3212  137.6150  157.5249 O.2     1  UNL1       -0.2526
     14 N         142.7404  139.7649  158.9220 N.am    1  UNL1       -0.2903
     15 C         144.0701  138.6944  155.3393 C.3     1  UNL1        0.1153
     16 C         144.9445  139.2341  154.2466 C.3     1  UNL1        0.0969
     17 H         143.1649  140.6475  159.0219 H       1  UNL1        0.1509
     18 C         143.4232  137.3495  155.1871 C.ar    1  UNL1       -0.0029
     19 C         142.0477  137.2412  154.5989 C.ar    1  UNL1       -0.0026
     20 C         141.4009  135.8963  154.4466 C.ar    1  UNL1       -0.0003
     21 C         142.1297  134.6599  154.8826 C.ar    1  UNL1       -0.0000
     22 C         143.5053  134.7683  155.4709 C.ar    1  UNL1       -0.0003
     23 C         144.1521  136.1131  155.6231 C.ar    1  UNL1       -0.0026
     24 C         139.2427  137.6062  163.2931 C.3     1  UNL1        0.1007
     25 C         139.2641  138.2396  164.6526 C.ar    1  UNL1        0.0129
     26 C         138.2057  138.1013  165.7065 C.ar    1  UNL1        0.0176
     27 C         138.6352  138.8988  166.9021 C.ar    1  UNL1        0.0799
     28 N         139.9590  139.5300  166.5871 N.ar    1  UNL1       -0.3038
     29 C         140.3477  139.1225  165.1968 C.ar    1  UNL1        0.0772
     30 C         140.7545  140.4134  167.5019 C.ar    1  UNL1        0.0640
     31 C         141.9919  139.8857  168.1654 C.ar    1  UNL1        0.0175
     32 C         142.7874  140.7691  169.0801 C.ar    1  UNL1        0.0053
     33 C         142.3455  142.1804  169.3313 C.ar    1  UNL1        0.0715
     34 C         141.1080  142.7082  168.6678 C.ar    1  UNL1        0.0053
     35 C         140.3126  141.8247  167.7531 C.ar    1  UNL1        0.0175
     36 C         143.1409  143.0638  170.2460 C.3     1  UNL1        0.4186
     37 F         143.9364  143.9472  171.1608 F       1  UNL1       -0.1659
     38 F         141.9659  143.9868  170.3766 F       1  UNL1       -0.1659
     39 F         144.3161  142.1408  170.1155 F       1  UNL1       -0.1659
@<TRIPOS>BOND
     1     7     8    1
     2     8     9    1
     3     9    10    1
     4    10    11    1
     5    11    12   am
     6    12    13    2
     7    12    14   am
     8    14     1    1
     9     1     2    1
    10     2     3    1
    11     3     4    1
    12     4    24    1
    13    24    25    1
    14    25    26   ar
    15    26    27   ar
    16    27    28   ar
    17    28    30    1
    18    30    31   ar
    19    31    32   ar
    20    32    33   ar
    21    33    36    1
    22    36    37    1
    23    36    38    1
    24    36    39    1
    25    33    34   ar
    26    34    35   ar
    27    28    29   ar
    28     4     5    1
    29     5     6    1
    30    11    15    1
    31    15    18    1
    32    18    19   ar
    33    19    20   ar
    34    20    21   ar
    35    21    22   ar
    36    22    23   ar
    37    15    16    1
    38    16     8    1
    39     6     1    1
    40    23    18   ar
    41    29    25   ar
    42    35    30   ar
    43    14    17    1
@<TRIPOS>MOLECULE
*****
 39 43 0 0 0
SMALL
GASTEIGER

@<TRIPOS>ATOM
      1 C         142.5244  139.0732  162.0989 C.3     1  UNL1        0.0758
      2 C         141.3273  138.5208  161.3835 C.3     1  UNL1        0.0370
      3 C         141.3434  138.3836  159.8899 C.3     1  UNL1        0.0741
      4 N         142.5565  138.7987  159.1116 N.3     1  UNL1       -0.2688
      5 C         143.7537  139.3512  159.8270 C.3     1  UNL1        0.0741
      6 C         143.7376  139.4884  161.3206 C.3     1  UNL1        0.0370
      7 C         141.5668  140.7884  170.2162 C.3     1  UNL1        0.0897
      8 N         141.5829  140.6512  168.7226 N.3     1  UNL1       -0.2683
      9 C         142.4600  139.6221  168.0734 C.3     1  UNL1        0.0940
     10 C         142.4761  139.4849  166.5797 C.3     1  UNL1        0.1125
     11 N         141.6150  140.3768  165.7353 N.am    1  UNL1       -0.2593
     12 C         141.6311  140.2395  164.2417 C.2     1  UNL1        0.3042
     13 O         140.7701  141.1314  163.3973 O.2     1  UNL1       -0.2526
     14 N         142.5083  139.2104  163.5925 N.am    1  UNL1       -0.2903
     15 C         140.7379  141.4058  166.3845 C.3     1  UNL1        0.1153
     16 C         140.7218  141.5431  167.8782 C.3     1  UNL1        0.0969
     17 H         143.0734  138.6250  164.1467 H       1  UNL1        0.1509
     18 C         139.8768  142.2978  165.5401 C.ar    1  UNL1       -0.0029
     19 C         138.5404  141.8145  165.0601 C.ar    1  UNL1       -0.0026
     20 C         137.6792  142.7064  164.2157 C.ar    1  UNL1       -0.0003
     21 C         138.1546  144.0817  163.8513 C.ar    1  UNL1       -0.0000
     22 C         139.4911  144.5649  164.3313 C.ar    1  UNL1       -0.0003
     23 C         140.3521  143.6730  165.1757 C.ar    1  UNL1       -0.0026
     24 C         142.5726  138.6615  157.6180 C.3     1  UNL1        0.1007
     25 C         143.0090  137.3721  156.9880 C.ar    1  UNL1        0.0129
     26 C         143.5468  137.2079  155.5973 C.ar    1  UNL1        0.0176
     27 C         143.8544  135.7549  155.3878 C.ar    1  UNL1        0.0799
     28 N         143.5067  135.0210  156.6490 N.ar    1  UNL1       -0.3038
     29 C         142.9842  136.0205  157.6379 C.ar    1  UNL1        0.0772
     30 C         143.6554  133.5464  156.8806 C.ar    1  UNL1        0.0640
     31 C         144.7629  133.0319  157.7516 C.ar    1  UNL1        0.0175
     32 C         144.9116  131.5574  157.9832 C.ar    1  UNL1        0.0053
     33 C         143.9527  130.5973  157.3438 C.ar    1  UNL1        0.0715
     34 C         142.8451  131.1118  156.4728 C.ar    1  UNL1        0.0053
     35 C         142.6965  132.5863  156.2413 C.ar    1  UNL1        0.0175
     36 C         144.1014  129.1228  157.5754 C.3     1  UNL1        0.4186
     37 F         144.2501  127.6483  157.8070 F       1  UNL1       -0.1659
     38 F         143.9696  129.3416  159.0534 F       1  UNL1       -0.1659
     39 F         144.2332  128.9040  156.0973 F       1  UNL1       -0.1659
@<TRIPOS>BOND
     1     7     8    1
     2     8     9    1
     3     9    10    1
     4    10    11    1
     5    11    12   am
     6    12    13    2
     7    12    14   am
     8    14     1    1
     9     1     2    1
    10     2     3    1
    11     3     4    1
    12     4    24    1
    13    24    25    1
    14    25    26   ar
    15    26    27   ar
    16    27    28   ar
    17    28    30    1
    18    30    31   ar
    19    31    32   ar
    20    32    33   ar
    21    33    36    1
    22    36    37    1
    23    36    38    1
    24    36    39    1
    25    33    34   ar
    26    34    35   ar
    27    28    29   ar
    28     4     5    1
    29     5     6    1
    30    11    15    1
    31    15    18    1
    32    18    19   ar
    33    19    20   ar
    34    20    21   ar
    35    21    22   ar
    36    22    23   ar
    37    15    16    1
    38    16     8    1
    39     6     1    1
    40    23    18   ar
    41    29    25   ar
    42    35    30   ar
    43    14    17    1
@<TRIPOS>MOLECULE
*****
 39 43 0 0 0
SMALL
GASTEIGER

@<TRIPOS>ATOM
      1 C         139.0609  140.7772  161.7280 C.3     1  UNL1        0.0758
      2 C         139.3932  139.6600  160.7839 C.3     1  UNL1        0.0370
      3 C         139.3032  139.8782  159.3026 C.3     1  UNL1        0.0741
      4 N         138.8810  141.2135  158.7654 N.3     1  UNL1       -0.2688
      5 C         138.5487  142.3307  159.7095 C.3     1  UNL1        0.0741
      6 C         138.6387  142.1126  161.1909 C.3     1  UNL1        0.0370
      7 C         140.8314  139.8190  169.8334 C.3     1  UNL1        0.0897
      8 N         140.7414  140.0372  168.3521 N.3     1  UNL1       -0.2683
      9 C         139.4208  139.9047  167.6533 C.3     1  UNL1        0.0940
     10 C         139.3308  140.1228  166.1720 C.3     1  UNL1        0.1125
     11 N         140.5615  140.4734  165.3894 N.am    1  UNL1       -0.2593
     12 C         140.4715  140.6916  163.9081 C.2     1  UNL1        0.3042
     13 O         141.7022  141.0422  163.1255 O.2     1  UNL1       -0.2526
     14 N         139.1509  140.5591  163.2094 N.am    1  UNL1       -0.2903
     15 C         141.8821  140.6059  166.0882 C.3     1  UNL1        0.1153
     16 C         141.9721  140.3878  167.5695 C.3     1  UNL1        0.0969
     17 H         138.3431  140.3289  163.7230 H       1  UNL1        0.1509
     18 C         143.1129  140.9566  165.3056 C.ar    1  UNL1       -0.0029
     19 C         143.9536  139.8701  164.7034 C.ar    1  UNL1       -0.0026
     20 C         145.1844  140.2208  163.9209 C.ar    1  UNL1       -0.0003
     21 C         145.5744  141.6579  163.7405 C.ar    1  UNL1       -0.0000
     22 C         144.7336  142.7444  164.3428 C.ar    1  UNL1       -0.0003
     23 C         143.5029  142.3937  165.1253 C.ar    1  UNL1       -0.0026
     24 C         138.7910  141.4316  157.2841 C.3     1  UNL1        0.1007
     25 C         137.4577  141.3843  156.5986 C.ar    1  UNL1        0.0129
     26 C         137.1215  142.0146  155.2796 C.ar    1  UNL1        0.0176
     27 C         135.6824  141.7182  154.9776 C.ar    1  UNL1        0.0799
     28 N         135.1292  140.9046  156.1100 N.ar    1  UNL1       -0.3038
     29 C         136.2264  140.6983  157.1118 C.ar    1  UNL1        0.0772
     30 C         133.7253  140.3881  156.2210 C.ar    1  UNL1        0.0640
     31 C         133.4742  139.0049  156.7440 C.ar    1  UNL1        0.0175
     32 C         132.0703  138.4884  156.8550 C.ar    1  UNL1        0.0053
     33 C         130.9175  139.3552  156.4431 C.ar    1  UNL1        0.0715
     34 C         131.1686  140.7385  155.9201 C.ar    1  UNL1        0.0053
     35 C         132.5725  141.2549  155.8091 C.ar    1  UNL1        0.0175
     36 C         129.5137  138.8387  156.5541 C.3     1  UNL1        0.4186
     37 F         128.1098  138.3222  156.6652 F       1  UNL1       -0.1659
     38 F         129.0849  140.1366  157.1717 F       1  UNL1       -0.1659
     39 F         129.9424  137.5407  155.9365 F       1  UNL1       -0.1659
@<TRIPOS>BOND
     1     7     8    1
     2     8     9    1
     3     9    10    1
     4    10    11    1
     5    11    12   am
     6    12    13    2
     7    12    14   am
     8    14     1    1
     9     1     2    1
    10     2     3    1
    11     3     4    1
    12     4    24    1
    13    24    25    1
    14    25    26   ar
    15    26    27   ar
    16    27    28   ar
    17    28    30    1
    18    30    31   ar
    19    31    32   ar
    20    32    33   ar
    21    33    36    1
    22    36    37    1
    23    36    38    1
    24    36    39    1
    25    33    34   ar
    26    34    35   ar
    27    28    29   ar
    28     4     5    1
    29     5     6    1
    30    11    15    1
    31    15    18    1
    32    18    19   ar
    33    19    20   ar
    34    20    21   ar
    35    21    22   ar
    36    22    23   ar
    37    15    16    1
    38    16     8    1
    39     6     1    1
    40    23    18   ar
    41    29    25   ar
    42    35    30   ar
    43    14    17    1
@<TRIPOS>MOLECULE
*****
 39 43 0 0 0
SMALL
GASTEIGER

@<TRIPOS>ATOM
      1 C         140.6429  143.3712  162.1691 C.3     1  UNL1        0.0758
      2 C         141.9472  143.7338  161.5231 C.3     1  UNL1        0.0370
      3 C         142.0554  143.7836  160.0279 C.3     1  UNL1        0.0741
      4 N         140.8593  143.4709  159.1785 N.3     1  UNL1       -0.2688
      5 C         139.5549  143.1083  159.8244 C.3     1  UNL1        0.0741
      6 C         139.4467  143.0584  161.3197 C.3     1  UNL1        0.0370
      7 C         140.1182  141.8005  170.3549 C.3     1  UNL1        0.0897
      8 N         140.2264  141.8503  168.8596 N.3     1  UNL1       -0.2683
      9 C         140.2102  143.1718  168.1501 C.3     1  UNL1        0.0940
     10 C         140.3184  143.2217  166.6548 C.3     1  UNL1        0.1125
     11 N         140.4428  141.9500  165.8691 N.am    1  UNL1       -0.2593
     12 C         140.5510  141.9999  164.3738 C.2     1  UNL1        0.3042
     13 O         140.6755  140.7283  163.5881 O.2     1  UNL1       -0.2526
     14 N         140.5347  143.3213  163.6643 N.am    1  UNL1       -0.2903
     15 C         140.4591  140.6286  166.5786 C.3     1  UNL1        0.1153
     16 C         140.3509  140.5787  168.0738 C.3     1  UNL1        0.0969
     17 H         140.4530  144.1560  164.1800 H       1  UNL1        0.1509
     18 C         140.5836  139.3569  165.7928 C.ar    1  UNL1       -0.0029
     19 C         141.9400  138.7967  165.4825 C.ar    1  UNL1       -0.0026
     20 C         142.0645  137.5250  164.6968 C.ar    1  UNL1       -0.0003
     21 C         140.8325  136.8135  164.2213 C.ar    1  UNL1       -0.0000
     22 C         139.4760  137.3738  164.5317 C.ar    1  UNL1       -0.0003
     23 C         139.3516  138.6454  165.3174 C.ar    1  UNL1       -0.0026
     24 C         140.9675  143.5207  157.6833 C.3     1  UNL1        0.1007
     25 C         140.1504  144.5087  156.9047 C.ar    1  UNL1        0.0129
     26 C         139.0042  144.1817  155.9940 C.ar    1  UNL1        0.0176
     27 C         138.4814  145.4680  155.4266 C.ar    1  UNL1        0.0799
     28 N         139.3045  146.5901  155.9866 N.ar    1  UNL1       -0.3038
     29 C         140.3360  145.9971  156.9002 C.ar    1  UNL1        0.0772
     30 C         139.1272  148.0489  155.6859 C.ar    1  UNL1        0.0640
     31 C         138.4178  148.9358  156.6658 C.ar    1  UNL1        0.0175
     32 C         138.2405  150.3947  156.3651 C.ar    1  UNL1        0.0053
     33 C         138.7726  150.9666  155.0845 C.ar    1  UNL1        0.0715
     34 C         139.4820  150.0796  154.1046 C.ar    1  UNL1        0.0053
     35 C         139.6593  148.6208  154.4054 C.ar    1  UNL1        0.0175
     36 C         138.5953  152.4253  154.7839 C.3     1  UNL1        0.4186
     37 F         138.4180  153.8841  154.4832 F       1  UNL1       -0.1659
     38 F         138.4998  152.1121  153.3201 F       1  UNL1       -0.1659
     39 F         138.6909  152.7386  156.2477 F       1  UNL1       -0.1659
@<TRIPOS>BOND
     1     7     8    1
     2     8     9    1
     3     9    10    1
     4    10    11    1
     5    11    12   am
     6    12    13    2
     7    12    14   am
     8    14     1    1
     9     1     2    1
    10     2     3    1
    11     3     4    1
    12     4    24    1
    13    24    25    1
    14    25    26   ar
    15    26    27   ar
    16    27    28   ar
    17    28    30    1
    18    30    31   ar
    19    31    32   ar
    20    32    33   ar
    21    33    36    1
    22    36    37    1
    23    36    38    1
    24    36    39    1
    25    33    34   ar
    26    34    35   ar
    27    28    29   ar
    28     4     5    1
    29     5     6    1
    30    11    15    1
    31    15    18    1
    32    18    19   ar
    33    19    20   ar
    34    20    21   ar
    35    21    22   ar
    36    22    23   ar
    37    15    16    1
    38    16     8    1
    39     6     1    1
    40    23    18   ar
    41    29    25   ar
    42    35    30   ar
    43    14    17    1
@<TRIPOS>MOLECULE
*****
 39 43 0 0 0
SMALL
GASTEIGER

@<TRIPOS>ATOM
      1 C         138.9936  140.9424  162.0778 C.3     1  UNL1        0.0758
      2 C         139.1281  139.8003  161.1147 C.3     1  UNL1        0.0370
      3 C         138.9832  140.0408  159.6412 C.3     1  UNL1        0.0741
      4 N         138.7038  141.4234  159.1308 N.3     1  UNL1       -0.2688
      5 C         138.5693  142.5655  160.0940 C.3     1  UNL1        0.0741
      6 C         138.7142  142.3250  161.5674 C.3     1  UNL1        0.0370
      7 C         141.0687  139.8329  170.0911 C.3     1  UNL1        0.0897
      8 N         140.9238  140.0734  168.6176 N.3     1  UNL1       -0.2683
      9 C         139.5733  139.9803  167.9717 C.3     1  UNL1        0.0940
     10 C         139.4283  140.2208  166.4982 C.3     1  UNL1        0.1125
     11 N         140.6340  140.5544  165.6706 N.am    1  UNL1       -0.2593
     12 C         140.4891  140.7949  164.1971 C.2     1  UNL1        0.3042
     13 O         141.6948  141.1285  163.3695 O.2     1  UNL1       -0.2526
     14 N         139.1385  140.7018  163.5513 N.am    1  UNL1       -0.2903
     15 C         141.9846  140.6475  166.3165 C.3     1  UNL1        0.1153
     16 C         142.1295  140.4070  167.7900 C.3     1  UNL1        0.0969
     17 H         138.3472  140.4829  164.0945 H       1  UNL1        0.1509
     18 C         143.1904  140.9811  165.4889 C.ar    1  UNL1       -0.0029
     19 C         143.9727  139.8854  164.8276 C.ar    1  UNL1       -0.0026
     20 C         145.1785  140.2190  163.9999 C.ar    1  UNL1       -0.0003
     21 C         145.6019  141.6484  163.8337 C.ar    1  UNL1       -0.0000
     22 C         144.8195  142.7442  164.4951 C.ar    1  UNL1       -0.0003
     23 C         143.6138  142.4105  165.3226 C.ar    1  UNL1       -0.0026
     24 C         138.5589  141.6639  157.6573 C.3     1  UNL1        0.1007
     25 C         139.3608  142.7423  156.9910 C.ar    1  UNL1        0.0129
     26 C         140.8270  142.6860  156.6796 C.ar    1  UNL1        0.0176
     27 C         141.2096  143.9753  156.0152 C.ar    1  UNL1        0.0799
     28 N         139.9798  144.8284  155.9160 N.ar    1  UNL1       -0.3038
     29 C         138.8372  144.0663  156.5191 C.ar    1  UNL1        0.0772
     30 C         139.9056  146.2023  155.3186 C.ar    1  UNL1        0.0640
     31 C         139.0325  147.2474  155.9474 C.ar    1  UNL1        0.0175
     32 C         138.9583  148.6213  155.3500 C.ar    1  UNL1        0.0053
     33 C         139.7573  148.9501  154.1238 C.ar    1  UNL1        0.0715
     34 C         140.6305  147.9050  153.4949 C.ar    1  UNL1        0.0053
     35 C         140.7046  146.5311  154.0924 C.ar    1  UNL1        0.0175
     36 C         139.6832  150.3240  153.5264 C.3     1  UNL1        0.4186
     37 F         139.6090  151.6979  152.9290 F       1  UNL1       -0.1659
     38 F         140.0450  150.9208  154.8540 F       1  UNL1       -0.1659
     39 F         139.3212  149.7271  152.1987 F       1  UNL1       -0.1659
@<TRIPOS>BOND
     1     7     8    1
     2     8     9    1
     3     9    10    1
     4    10    11    1
     5    11    12   am
     6    12    13    2
     7    12    14   am
     8    14     1    1
     9     1     2    1
    10     2     3    1
    11     3     4    1
    12     4    24    1
    13    24    25    1
    14    25    26   ar
    15    26    27   ar
    16    27    28   ar
    17    28    30    1
    18    30    31   ar
    19    31    32   ar
    20    32    33   ar
    21    33    36    1
    22    36    37    1
    23    36    38    1
    24    36    39    1
    25    33    34   ar
    26    34    35   ar
    27    28    29   ar
    28     4     5    1
    29     5     6    1
    30    11    15    1
    31    15    18    1
    32    18    19   ar
    33    19    20   ar
    34    20    21   ar
    35    21    22   ar
    36    22    23   ar
    37    15    16    1
    38    16     8    1
    39     6     1    1
    40    23    18   ar
    41    29    25   ar
    42    35    30   ar
    43    14    17    1
@<TRIPOS>MOLECULE
*****
 39 43 0 0 0
SMALL
GASTEIGER

@<TRIPOS>ATOM
      1 C         142.2353  138.7311  161.7742 C.3     1  UNL1        0.0758
      2 C         140.8869  138.5300  161.1487 C.3     1  UNL1        0.0370
      3 C         140.7589  138.4336  159.6573 C.3     1  UNL1        0.0741
      4 N         141.9792  138.5384  158.7914 N.3     1  UNL1       -0.2688
      5 C         143.3277  138.7396  159.4170 C.3     1  UNL1        0.0741
      6 C         143.4557  138.8359  160.9084 C.3     1  UNL1        0.0370
      7 C         142.9354  140.5573  169.8937 C.3     1  UNL1        0.0897
      8 N         142.8073  140.4610  168.4022 N.3     1  UNL1       -0.2683
      9 C         142.7475  139.1165  167.7399 C.3     1  UNL1        0.0940
     10 C         142.6195  139.0202  166.2485 C.3     1  UNL1        0.1125
     11 N         142.5512  140.2683  165.4194 N.am    1  UNL1       -0.2593
     12 C         142.4232  140.1720  163.9280 C.2     1  UNL1        0.3042
     13 O         142.3549  141.4201  163.0989 O.2     1  UNL1       -0.2526
     14 N         142.3633  138.8275  163.2657 N.am    1  UNL1       -0.2903
     15 C         142.6111  141.6128  166.0817 C.3     1  UNL1        0.1153
     16 C         142.7391  141.7091  167.5732 C.3     1  UNL1        0.0969
     17 H         142.4081  138.0082  163.8098 H       1  UNL1        0.1509
     18 C         142.5428  142.8610  165.2526 C.ar    1  UNL1       -0.0029
     19 C         141.2115  143.4546  164.8989 C.ar    1  UNL1       -0.0026
     20 C         141.1433  144.7028  164.0698 C.ar    1  UNL1       -0.0003
     21 C         142.4064  145.3574  163.5945 C.ar    1  UNL1       -0.0000
     22 C         143.7378  144.7638  163.9483 C.ar    1  UNL1       -0.0003
     23 C         143.8060  143.5156  164.7773 C.ar    1  UNL1       -0.0026
     24 C         141.8511  138.4421  157.3000 C.3     1  UNL1        0.1007
     25 C         142.2576  137.1837  156.5921 C.ar    1  UNL1        0.0129
     26 C         143.6646  136.7324  156.3341 C.ar    1  UNL1        0.0176
     27 C         143.6051  135.4254  155.6004 C.ar    1  UNL1        0.0799
     28 N         142.1611  135.0690  155.4049 N.ar    1  UNL1       -0.3038
     29 C         141.3284  136.1557  156.0178 C.ar    1  UNL1        0.0772
     30 C         141.6413  133.8414  154.7173 C.ar    1  UNL1        0.0640
     31 C         141.2690  133.8960  153.2653 C.ar    1  UNL1        0.0175
     32 C         140.7491  132.6684  152.5777 C.ar    1  UNL1        0.0053
     33 C         140.6016  131.3863  153.3421 C.ar    1  UNL1        0.0715
     34 C         140.9739  131.3317  154.7942 C.ar    1  UNL1        0.0053
     35 C         141.4937  132.5593  155.4817 C.ar    1  UNL1        0.0175
     36 C         140.0817  130.1588  152.6545 C.3     1  UNL1        0.4186
     37 F         139.5618  128.9312  151.9668 F       1  UNL1       -0.1659
     38 F         141.4357  129.5230  152.7657 F       1  UNL1       -0.1659
     39 F         138.7277  130.7945  152.5432 F       1  UNL1       -0.1659
@<TRIPOS>BOND
     1     7     8    1
     2     8     9    1
     3     9    10    1
     4    10    11    1
     5    11    12   am
     6    12    13    2
     7    12    14   am
     8    14     1    1
     9     1     2    1
    10     2     3    1
    11     3     4    1
    12     4    24    1
    13    24    25    1
    14    25    26   ar
    15    26    27   ar
    16    27    28   ar
    17    28    30    1
    18    30    31   ar
    19    31    32   ar
    20    32    33   ar
    21    33    36    1
    22    36    37    1
    23    36    38    1
    24    36    39    1
    25    33    34   ar
    26    34    35   ar
    27    28    29   ar
    28     4     5    1
    29     5     6    1
    30    11    15    1
    31    15    18    1
    32    18    19   ar
    33    19    20   ar
    34    20    21   ar
    35    21    22   ar
    36    22    23   ar
    37    15    16    1
    38    16     8    1
    39     6     1    1
    40    23    18   ar
    41    29    25   ar
    42    35    30   ar
    43    14    17    1
@<TRIPOS>MOLECULE
*****
 39 43 0 0 0
SMALL
GASTEIGER

@<TRIPOS>ATOM
      1 C         143.6130  140.7121  162.3198 C.3     1  UNL1        0.0758
      2 C         144.0174  142.0953  161.9035 C.3     1  UNL1        0.0370
      3 C         144.2985  142.3921  160.4603 C.3     1  UNL1        0.0741
      4 N         144.1753  141.3058  159.4333 N.3     1  UNL1       -0.2688
      5 C         143.7709  139.9225  159.8496 C.3     1  UNL1        0.0741
      6 C         143.4897  139.6257  161.2928 C.3     1  UNL1        0.0370
      7 C         141.0084  139.8314  170.2059 C.3     1  UNL1        0.0897
      8 N         141.2896  140.1282  168.7627 N.3     1  UNL1       -0.2683
      9 C         142.4883  139.5249  168.0926 C.3     1  UNL1        0.0940
     10 C         142.7695  139.8217  166.6494 C.3     1  UNL1        0.1125
     11 N         141.8519  140.7218  165.8762 N.am    1  UNL1       -0.2593
     12 C         142.1331  141.0186  164.4330 C.2     1  UNL1        0.3042
     13 O         141.2155  141.9188  163.6599 O.2     1  UNL1       -0.2526
     14 N         143.3318  140.4153  163.7630 N.am    1  UNL1       -0.2903
     15 C         140.6532  141.3251  166.5463 C.3     1  UNL1        0.1153
     16 C         140.3720  141.0283  167.9895 C.3     1  UNL1        0.0969
     17 H         143.9340  139.8245  164.2704 H       1  UNL1        0.1509
     18 C         139.7355  142.2253  165.7731 C.ar    1  UNL1       -0.0029
     19 C         138.5880  141.6432  165.0024 C.ar    1  UNL1       -0.0026
     20 C         137.6703  142.5434  164.2292 C.ar    1  UNL1       -0.0003
     21 C         137.9004  144.0257  164.2269 C.ar    1  UNL1       -0.0000
     22 C         139.0480  144.6078  164.9977 C.ar    1  UNL1       -0.0003
     23 C         139.9656  143.7076  165.7708 C.ar    1  UNL1       -0.0026
     24 C         144.4564  141.6026  157.9901 C.3     1  UNL1        0.1007
     25 C         144.4913  140.4871  156.9880 C.ar    1  UNL1        0.0129
     26 C         145.4771  140.3392  155.8671 C.ar    1  UNL1        0.0176
     27 C         145.1415  139.0843  155.1171 C.ar    1  UNL1        0.0799
     28 N         143.9482  138.4565  155.7745 N.ar    1  UNL1       -0.3038
     29 C         143.5464  139.3235  156.9307 C.ar    1  UNL1        0.0772
     30 C         143.2750  137.1850  155.3501 C.ar    1  UNL1        0.0640
     31 C         141.9410  137.2349  154.6660 C.ar    1  UNL1        0.0175
     32 C         141.2678  135.9634  154.2416 C.ar    1  UNL1        0.0053
     33 C         141.9285  134.6420  154.5013 C.ar    1  UNL1        0.0715
     34 C         143.2626  134.5921  155.1854 C.ar    1  UNL1        0.0053
     35 C         143.9357  135.8637  155.6098 C.ar    1  UNL1        0.0175
     36 C         141.2553  133.3706  154.0769 C.3     1  UNL1        0.4186
     37 F         140.5821  132.0992  153.6525 F       1  UNL1       -0.1659
     38 F         141.2468  132.8997  155.5009 F       1  UNL1       -0.1659
     39 F         141.2638  133.8415  152.6527 F       1  UNL1       -0.1659
@<TRIPOS>BOND
     1     7     8    1
     2     8     9    1
     3     9    10    1
     4    10    11    1
     5    11    12   am
     6    12    13    2
     7    12    14   am
     8    14     1    1
     9     1     2    1
    10     2     3    1
    11     3     4    1
    12     4    24    1
    13    24    25    1
    14    25    26   ar
    15    26    27   ar
    16    27    28   ar
    17    28    30    1
    18    30    31   ar
    19    31    32   ar
    20    32    33   ar
    21    33    36    1
    22    36    37    1
    23    36    38    1
    24    36    39    1
    25    33    34   ar
    26    34    35   ar
    27    28    29   ar
    28     4     5    1
    29     5     6    1
    30    11    15    1
    31    15    18    1
    32    18    19   ar
    33    19    20   ar
    34    20    21   ar
    35    21    22   ar
    36    22    23   ar
    37    15    16    1
    38    16     8    1
    39     6     1    1
    40    23    18   ar
    41    29    25   ar
    42    35    30   ar
    43    14    17    1
