@<TRIPOS>MOLECULE
*****
 34 38 0 0 0
SMALL
GASTEIGER

@<TRIPOS>ATOM
      1 N         141.0011  143.4924  160.0928 N.3     1  UNL1       -0.2712
      2 C         141.3261  144.7674  160.8131 C.3     1  UNL1        0.0738
      3 C         141.0174  144.5696  162.2676 C.3     1  UNL1        0.0372
      4 C         141.0276  145.2353  163.6117 C.3     1  UNL1        0.0245
      5 C         140.5180  144.2496  164.6211 C.3     1  UNL1        0.0909
      6 N         140.1930  142.9746  163.9007 N.pl3   1  UNL1       -0.3077
      7 C         140.5016  143.1724  162.4462 C.3     1  UNL1        0.0901
      8 C         140.4915  142.5067  161.1021 C.3     1  UNL1        0.0921
      9 C         139.6539  141.7219  164.5252 C.ar    1  UNL1        0.0478
     10 C         138.7060  140.8490  163.7575 C.ar    1  UNL1        0.0145
     11 C         138.1670  139.5962  164.3820 C.ar    1  UNL1        0.0051
     12 C         138.5758  139.2163  165.7743 C.ar    1  UNL1        0.0715
     13 C         139.5238  140.0892  166.5421 C.ar    1  UNL1        0.0051
     14 C         140.0629  141.3420  165.9176 C.ar    1  UNL1        0.0145
     15 C         138.0368  137.9636  166.3988 C.3     1  UNL1        0.4186
     16 F         137.4977  136.7108  167.0233 F       1  UNL1       -0.1659
     17 F         137.4990  138.7668  167.5458 F       1  UNL1       -0.1659
     18 F         138.5746  137.1604  165.2518 F       1  UNL1       -0.1659
     19 C         141.1580  143.2464  158.6214 C.3     1  UNL1        0.0731
     20 C         142.4485  143.5881  157.9373 C.3     1  UNL1        0.0294
     21 C         143.5122  142.5427  157.7771 C.3     1  UNL1        0.0666
     22 S         144.6492  142.4740  158.7530 S.3     1  UNL1       -0.0756
     23 C         143.7889  141.2002  162.3171 C.ar    1  UNL1        0.1699
     24 N         144.1108  142.6390  162.5933 N.ar    1  UNL1       -0.1281
     25 N         144.4722  143.2913  161.2919 N.ar    1  UNL1       -0.1221
     26 C         144.3738  142.2556  160.2113 C.ar    1  UNL1        0.1932
     27 N         143.9515  140.9632  160.8448 N.ar    1  UNL1       -0.2884
     28 C         143.7305  139.6624  160.1315 C.3     1  UNL1        0.1340
     29 C         143.7821  138.0571  166.5600 C.3     1  UNL1        0.1538
     30 N         143.3738  138.7331  165.2848 N.ar    1  UNL1       -0.2472
     31 C         144.1556  139.7848  164.5549 C.ar    1  UNL1        0.0997
     32 C         143.3769  140.1778  163.3345 C.ar    1  UNL1        0.0755
     33 C         142.1139  139.3690  163.3102 C.ar    1  UNL1        0.1247
     34 N         142.1120  138.4761  164.5155 N.ar    1  UNL1       -0.1675
@<TRIPOS>BOND
     1    29    30    1
     2    30    31   ar
     3    31    32   ar
     4    32    23    1
     5    23    24   ar
     6    24    25   ar
     7    25    26   ar
     8    26    22    1
     9    22    21    1
    10    21    20    1
    11    20    19    1
    12    19     1    1
    13     1     2    1
    14     2     3    1
    15     3     4    1
    16     4     5    1
    17     5     6    1
    18     6     9    1
    19     9    10   ar
    20    10    11   ar
    21    11    12   ar
    22    12    15    1
    23    15    16    1
    24    15    17    1
    25    15    18    1
    26    12    13   ar
    27    13    14   ar
    28     6     7    1
    29     7     8    1
    30    26    27   ar
    31    27    28    1
    32    32    33   ar
    33    33    34   ar
    34    34    30   ar
    35    27    23   ar
    36     8     1    1
    37     7     3    1
    38    14     9   ar
@<TRIPOS>MOLECULE
*****
 34 38 0 0 0
SMALL
GASTEIGER

@<TRIPOS>ATOM
      1 N         141.7278  142.4524  159.4282 N.3     1  UNL1       -0.2712
      2 C         142.5117  141.3977  158.7050 C.3     1  UNL1        0.0738
      3 C         142.3434  140.1049  159.4468 C.3     1  UNL1        0.0372
      4 C         142.7238  138.6540  159.4582 C.3     1  UNL1        0.0245
      5 C         142.0711  138.0129  160.6470 C.3     1  UNL1        0.0909
      6 N         141.2872  139.0678  161.3702 N.pl3   1  UNL1       -0.3077
      7 C         141.4555  140.3606  160.6284 C.3     1  UNL1        0.0901
      8 C         141.0750  141.8115  160.6169 C.3     1  UNL1        0.0921
      9 C         140.4772  138.8652  162.6164 C.ar    1  UNL1        0.0478
     10 C         139.2096  139.6406  162.8212 C.ar    1  UNL1        0.0145
     11 C         138.3996  139.4381  164.0674 C.ar    1  UNL1        0.0051
     12 C         138.8573  138.4602  165.1087 C.ar    1  UNL1        0.0715
     13 C         140.1249  137.6848  164.9039 C.ar    1  UNL1        0.0051
     14 C         140.9349  137.8873  163.6577 C.ar    1  UNL1        0.0145
     15 C         138.0473  138.2577  166.3549 C.3     1  UNL1        0.4186
     16 F         137.2373  138.0552  167.6010 F       1  UNL1       -0.1659
     17 F         138.1460  139.7236  166.6572 F       1  UNL1       -0.1659
     18 F         137.9486  136.7918  166.0525 F       1  UNL1       -0.1659
     19 C         141.6162  143.8949  159.0322 C.3     1  UNL1        0.0731
     20 C         141.5050  144.9557  160.0868 C.3     1  UNL1        0.0294
     21 C         140.1631  145.5271  160.4375 C.3     1  UNL1        0.0666
     22 S         139.8601  145.9147  161.8545 S.3     1  UNL1       -0.0756
     23 C         139.9200  143.2249  164.6522 C.ar    1  UNL1        0.1699
     24 N         138.4680  143.2195  164.2758 N.ar    1  UNL1       -0.1281
     25 N         138.2688  144.2264  163.1820 N.ar    1  UNL1       -0.1221
     26 C         139.5978  144.8542  162.8823 C.ar    1  UNL1        0.1932
     27 N         140.6183  144.2352  163.7909 N.ar    1  UNL1       -0.2884
     28 C         142.0803  144.5682  163.8311 C.3     1  UNL1        0.1340
     29 C         142.7038  139.4107  167.0150 C.3     1  UNL1        0.1538
     30 N         141.8408  140.6169  166.7909 N.ar    1  UNL1       -0.2472
     31 C         141.4120  141.1593  165.4598 C.ar    1  UNL1        0.0997
     32 C         140.5612  142.3701  165.7049 C.ar    1  UNL1        0.0755
     33 C         140.4642  142.5761  167.1875 C.ar    1  UNL1        0.1247
     34 N         141.2550  141.4925  167.8587 N.ar    1  UNL1       -0.1675
@<TRIPOS>BOND
     1    29    30    1
     2    30    31   ar
     3    31    32   ar
     4    32    23    1
     5    23    24   ar
     6    24    25   ar
     7    25    26   ar
     8    26    22    1
     9    22    21    1
    10    21    20    1
    11    20    19    1
    12    19     1    1
    13     1     2    1
    14     2     3    1
    15     3     4    1
    16     4     5    1
    17     5     6    1
    18     6     9    1
    19     9    10   ar
    20    10    11   ar
    21    11    12   ar
    22    12    15    1
    23    15    16    1
    24    15    17    1
    25    15    18    1
    26    12    13   ar
    27    13    14   ar
    28     6     7    1
    29     7     8    1
    30    26    27   ar
    31    27    28    1
    32    32    33   ar
    33    33    34   ar
    34    34    30   ar
    35    27    23   ar
    36     8     1    1
    37     7     3    1
    38    14     9   ar
@<TRIPOS>MOLECULE
*****
 34 38 0 0 0
SMALL
GASTEIGER

@<TRIPOS>ATOM
      1 N         142.1853  138.1195  162.5147 N.3     1  UNL1       -0.2712
      2 C         140.8177  137.5055  162.5645 C.3     1  UNL1        0.0738
      3 C         140.1565  137.9488  163.8358 C.3     1  UNL1        0.0372
      4 C         138.9026  137.8433  164.6523 C.3     1  UNL1        0.0245
      5 C         139.0867  138.6662  165.8929 C.3     1  UNL1        0.0909
      6 N         140.4544  139.2802  165.8431 N.pl3   1  UNL1       -0.3077
      7 C         141.1155  138.8369  164.5718 C.3     1  UNL1        0.0901
      8 C         142.3694  138.9424  163.7553 C.3     1  UNL1        0.0921
      9 C         141.0553  140.1797  166.8823 C.ar    1  UNL1        0.0478
     10 C         140.5356  141.5758  167.0570 C.ar    1  UNL1        0.0145
     11 C         141.1365  142.4753  168.0961 C.ar    1  UNL1        0.0051
     12 C         142.2573  141.9786  168.9605 C.ar    1  UNL1        0.0715
     13 C         142.7771  140.5824  168.7858 C.ar    1  UNL1        0.0051
     14 C         142.1761  139.6830  167.7467 C.ar    1  UNL1        0.0145
     15 C         142.8582  142.8781  169.9997 C.3     1  UNL1        0.4186
     16 F         143.4592  143.7776  171.0388 F       1  UNL1       -0.1659
     17 F         141.5772  143.6554  170.0677 F       1  UNL1       -0.1659
     18 F         144.1393  142.1008  169.9316 F       1  UNL1       -0.1659
     19 C         143.1921  137.9419  161.4171 C.3     1  UNL1        0.0731
     20 C         142.7327  137.7261  160.0056 C.3     1  UNL1        0.0294
     21 C         142.9740  138.7826  158.9684 C.3     1  UNL1        0.0666
     22 S         141.8458  139.6618  158.5167 S.3     1  UNL1       -0.0756
     23 C         139.3800  140.8372  161.2742 C.ar    1  UNL1        0.1699
     24 N         138.4976  139.9374  160.4606 N.ar    1  UNL1       -0.1281
     25 N         139.3139  139.3876  159.3286 N.ar    1  UNL1       -0.1221
     26 C         140.7008  139.9476  159.4426 C.ar    1  UNL1        0.1932
     27 N         140.7417  140.8434  160.6450 N.ar    1  UNL1       -0.2884
     28 C         141.9347  141.6108  161.1326 C.3     1  UNL1        0.1340
     29 C         139.0275  144.5926  164.9692 C.3     1  UNL1        0.1538
     30 N         138.8102  143.3234  164.1998 N.ar    1  UNL1       -0.2472
     31 C         139.4856  142.9446  162.9152 C.ar    1  UNL1        0.0997
     32 C         138.9722  141.5972  162.5014 C.ar    1  UNL1        0.0755
     33 C         137.9796  141.1434  163.5304 C.ar    1  UNL1        0.1247
     34 N         137.8795  142.2102  164.5800 N.ar    1  UNL1       -0.1675
@<TRIPOS>BOND
     1    29    30    1
     2    30    31   ar
     3    31    32   ar
     4    32    23    1
     5    23    24   ar
     6    24    25   ar
     7    25    26   ar
     8    26    22    1
     9    22    21    1
    10    21    20    1
    11    20    19    1
    12    19     1    1
    13     1     2    1
    14     2     3    1
    15     3     4    1
    16     4     5    1
    17     5     6    1
    18     6     9    1
    19     9    10   ar
    20    10    11   ar
    21    11    12   ar
    22    12    15    1
    23    15    16    1
    24    15    17    1
    25    15    18    1
    26    12    13   ar
    27    13    14   ar
    28     6     7    1
    29     7     8    1
    30    26    27   ar
    31    27    28    1
    32    32    33   ar
    33    33    34   ar
    34    34    30   ar
    35    27    23   ar
    36     8     1    1
    37     7     3    1
    38    14     9   ar
@<TRIPOS>MOLECULE
*****
 34 38 0 0 0
SMALL
GASTEIGER

@<TRIPOS>ATOM
      1 N         140.9265  138.1897  163.2421 N.3     1  UNL1       -0.2712
      2 C         139.5585  137.6507  163.5389 C.3     1  UNL1        0.0738
      3 C         139.1352  138.1735  164.8797 C.3     1  UNL1        0.0372
      4 C         138.0281  138.1635  165.8917 C.3     1  UNL1        0.0245
      5 C         138.4502  139.0194  167.0490 C.3     1  UNL1        0.0909
      6 N         139.8182  139.5584  166.7522 N.pl3   1  UNL1       -0.3077
      7 C         140.2415  139.0356  165.4114 C.3     1  UNL1        0.0901
      8 C         141.3486  139.0457  164.3994 C.3     1  UNL1        0.0921
      9 C         140.6218  140.4616  167.6401 C.ar    1  UNL1        0.0478
     10 C         139.9713  141.1322  168.8136 C.ar    1  UNL1        0.0145
     11 C         140.7749  142.0354  169.7016 C.ar    1  UNL1        0.0051
     12 C         142.2289  142.2680  169.4161 C.ar    1  UNL1        0.0715
     13 C         142.8795  141.5975  168.2425 C.ar    1  UNL1        0.0051
     14 C         142.0759  140.6943  167.3545 C.ar    1  UNL1        0.0145
     15 C         143.0325  143.1713  170.3040 C.3     1  UNL1        0.4186
     16 F         143.8361  144.0745  171.1920 F       1  UNL1       -0.1659
     17 F         144.2105  142.2518  170.1733 F       1  UNL1       -0.1659
     18 F         141.8546  144.0907  170.4348 F       1  UNL1       -0.1659
     19 C         141.7311  137.9202  162.0052 C.3     1  UNL1        0.0731
     20 C         143.2254  138.0453  162.0405 C.3     1  UNL1        0.0294
     21 C         143.9723  138.4650  160.8092 C.3     1  UNL1        0.0666
     22 S         143.8884  139.8833  160.3281 S.3     1  UNL1       -0.0756
     23 C         142.3000  142.6796  162.5014 C.ar    1  UNL1        0.1699
     24 N         143.7035  142.6632  163.0305 N.ar    1  UNL1       -0.1281
     25 N         144.4694  141.6137  162.2808 N.ar    1  UNL1       -0.1221
     26 C         143.5392  140.9815  161.2883 C.ar    1  UNL1        0.1932
     27 N         142.1985  141.6402  161.4246 N.ar    1  UNL1       -0.2884
     28 C         140.9716  141.3163  160.6247 C.3     1  UNL1        0.1340
     29 C         138.6232  144.9650  165.5244 C.3     1  UNL1        0.1538
     30 N         139.5025  144.6281  164.3568 N.ar    1  UNL1       -0.2472
     31 C         140.5645  143.5692  164.3294 C.ar    1  UNL1        0.0997
     32 C         141.1925  143.5777  162.9673 C.ar    1  UNL1        0.0755
     33 C         140.5187  144.6419  162.1528 C.ar    1  UNL1        0.1247
     34 N         139.4742  145.2911  163.0115 N.ar    1  UNL1       -0.1675
@<TRIPOS>BOND
     1    29    30    1
     2    30    31   ar
     3    31    32   ar
     4    32    23    1
     5    23    24   ar
     6    24    25   ar
     7    25    26   ar
     8    26    22    1
     9    22    21    1
    10    21    20    1
    11    20    19    1
    12    19     1    1
    13     1     2    1
    14     2     3    1
    15     3     4    1
    16     4     5    1
    17     5     6    1
    18     6     9    1
    19     9    10   ar
    20    10    11   ar
    21    11    12   ar
    22    12    15    1
    23    15    16    1
    24    15    17    1
    25    15    18    1
    26    12    13   ar
    27    13    14   ar
    28     6     7    1
    29     7     8    1
    30    26    27   ar
    31    27    28    1
    32    32    33   ar
    33    33    34   ar
    34    34    30   ar
    35    27    23   ar
    36     8     1    1
    37     7     3    1
    38    14     9   ar
@<TRIPOS>MOLECULE
*****
 34 38 0 0 0
SMALL
GASTEIGER

@<TRIPOS>ATOM
      1 N         142.6033  142.0586  160.9530 N.3     1  UNL1       -0.2712
      2 C         143.1177  140.6644  160.7487 C.3     1  UNL1        0.0738
      3 C         142.9756  139.9234  162.0452 C.3     1  UNL1        0.0372
      4 C         143.2058  138.6038  162.7202 C.3     1  UNL1        0.0245
      5 C         142.7458  138.7244  164.1429 C.3     1  UNL1        0.0909
      6 N         142.2314  140.1186  164.3471 N.pl3   1  UNL1       -0.3077
      7 C         142.3735  140.8596  163.0507 C.3     1  UNL1        0.0901
      8 C         142.1434  142.1792  162.3756 C.3     1  UNL1        0.0921
      9 C         141.6731  140.6743  165.6236 C.ar    1  UNL1        0.0478
     10 C         141.5943  139.8097  166.8468 C.ar    1  UNL1        0.0145
     11 C         141.0359  140.3653  168.1233 C.ar    1  UNL1        0.0051
     12 C         140.5564  141.7855  168.1767 C.ar    1  UNL1        0.0715
     13 C         140.6351  142.6502  166.9535 C.ar    1  UNL1        0.0051
     14 C         141.1935  142.0946  165.6769 C.ar    1  UNL1        0.0145
     15 C         139.9980  142.3411  169.4532 C.3     1  UNL1        0.4186
     16 F         139.4396  142.8967  170.7297 F       1  UNL1       -0.1659
     17 F         139.1188  141.1340  169.5941 F       1  UNL1       -0.1659
     18 F         140.8771  143.5483  169.3123 F       1  UNL1       -0.1659
     19 C         142.5570  143.1419  159.9165 C.3     1  UNL1        0.0731
     20 C         141.3783  144.0674  159.8511 C.3     1  UNL1        0.0294
     21 C         140.3149  143.8555  158.8146 C.3     1  UNL1        0.0666
     22 S         139.1740  142.9217  159.0906 S.3     1  UNL1       -0.0756
     23 C         138.5101  141.3387  162.5719 C.ar    1  UNL1        0.1699
     24 N         138.0151  142.7377  162.7904 N.ar    1  UNL1       -0.1281
     25 N         138.2036  143.5010  161.5129 N.ar    1  UNL1       -0.1221
     26 C         138.8150  142.5737  160.5048 C.ar    1  UNL1        0.1932
     27 N         139.0045  141.2373  161.1592 N.ar    1  UNL1       -0.2884
     28 C         139.5862  140.0143  160.5143 C.3     1  UNL1        0.1340
     29 C         137.8652  138.6575  167.0748 C.3     1  UNL1        0.1538
     30 N         138.2142  139.0025  165.6573 N.ar    1  UNL1       -0.2472
     31 C         138.0300  140.3404  165.0045 C.ar    1  UNL1        0.0997
     32 C         138.5107  140.2348  163.5875 C.ar    1  UNL1        0.0755
     33 C         138.9919  138.8318  163.3645 C.ar    1  UNL1        0.1247
     34 N         138.8087  138.0701  164.6437 N.ar    1  UNL1       -0.1675
@<TRIPOS>BOND
     1    29    30    1
     2    30    31   ar
     3    31    32   ar
     4    32    23    1
     5    23    24   ar
     6    24    25   ar
     7    25    26   ar
     8    26    22    1
     9    22    21    1
    10    21    20    1
    11    20    19    1
    12    19     1    1
    13     1     2    1
    14     2     3    1
    15     3     4    1
    16     4     5    1
    17     5     6    1
    18     6     9    1
    19     9    10   ar
    20    10    11   ar
    21    11    12   ar
    22    12    15    1
    23    15    16    1
    24    15    17    1
    25    15    18    1
    26    12    13   ar
    27    13    14   ar
    28     6     7    1
    29     7     8    1
    30    26    27   ar
    31    27    28    1
    32    32    33   ar
    33    33    34   ar
    34    34    30   ar
    35    27    23   ar
    36     8     1    1
    37     7     3    1
    38    14     9   ar
@<TRIPOS>MOLECULE
*****
 34 38 0 0 0
SMALL
GASTEIGER

@<TRIPOS>ATOM
      1 N         142.0846  143.4559  160.4503 N.3     1  UNL1       -0.2712
      2 C         141.3763  144.7675  160.6170 C.3     1  UNL1        0.0738
      3 C         140.3077  144.5886  161.6543 C.3     1  UNL1        0.0372
      4 C         139.2094  145.2887  162.3984 C.3     1  UNL1        0.0245
      5 C         138.5785  144.2991  163.3328 C.3     1  UNL1        0.0909
      6 N         139.2870  142.9874  163.1660 N.pl3   1  UNL1       -0.3077
      7 C         140.3556  143.1664  162.1287 C.3     1  UNL1        0.0901
      8 C         141.4538  142.4663  161.3846 C.3     1  UNL1        0.0921
      9 C         138.9805  141.7195  163.9066 C.ar    1  UNL1        0.0478
     10 C         138.6260  140.4749  163.1481 C.ar    1  UNL1        0.0145
     11 C         138.3195  139.2070  163.8887 C.ar    1  UNL1        0.0051
     12 C         138.3676  139.1837  165.3877 C.ar    1  UNL1        0.0715
     13 C         138.7222  140.4283  166.1462 C.ar    1  UNL1        0.0051
     14 C         139.0286  141.6962  165.4057 C.ar    1  UNL1        0.0145
     15 C         138.0612  137.9157  166.1283 C.3     1  UNL1        0.4186
     16 F         137.7547  136.6478  166.8689 F       1  UNL1       -0.1659
     17 F         138.6806  137.1182  165.0191 F       1  UNL1       -0.1659
     18 F         137.4417  138.7133  167.2374 F       1  UNL1       -0.1659
     19 C         143.2239  143.1819  159.5137 C.3     1  UNL1        0.0731
     20 C         144.3917  142.3604  159.9734 C.3     1  UNL1        0.0294
     21 C         144.9472  142.5527  161.3535 C.3     1  UNL1        0.0666
     22 S         144.7750  141.4799  162.3875 S.3     1  UNL1       -0.0756
     23 C         143.2657  141.8079  165.9484 C.ar    1  UNL1        0.1699
     24 N         144.1827  142.9945  165.9118 N.ar    1  UNL1       -0.1281
     25 N         144.8597  143.0160  164.5734 N.ar    1  UNL1       -0.1221
     26 C         144.3611  141.8428  163.7829 C.ar    1  UNL1        0.1932
     27 N         143.3760  141.0961  164.6326 N.ar    1  UNL1       -0.2884
     28 C         142.6318  139.8556  164.2362 C.3     1  UNL1        0.1340
     29 C         139.9219  142.0164  170.0296 C.3     1  UNL1        0.1538
     30 N         140.8549  141.5000  168.9747 N.ar    1  UNL1       -0.2472
     31 C         141.5671  142.3272  167.9460 C.ar    1  UNL1        0.0997
     32 C         142.3919  141.4041  167.0988 C.ar    1  UNL1        0.0755
     33 C         142.1894  140.0063  167.6040 C.ar    1  UNL1        0.1247
     34 N         141.2395  140.0656  168.7634 N.ar    1  UNL1       -0.1675
@<TRIPOS>BOND
     1    29    30    1
     2    30    31   ar
     3    31    32   ar
     4    32    23    1
     5    23    24   ar
     6    24    25   ar
     7    25    26   ar
     8    26    22    1
     9    22    21    1
    10    21    20    1
    11    20    19    1
    12    19     1    1
    13     1     2    1
    14     2     3    1
    15     3     4    1
    16     4     5    1
    17     5     6    1
    18     6     9    1
    19     9    10   ar
    20    10    11   ar
    21    11    12   ar
    22    12    15    1
    23    15    16    1
    24    15    17    1
    25    15    18    1
    26    12    13   ar
    27    13    14   ar
    28     6     7    1
    29     7     8    1
    30    26    27   ar
    31    27    28    1
    32    32    33   ar
    33    33    34   ar
    34    34    30   ar
    35    27    23   ar
    36     8     1    1
    37     7     3    1
    38    14     9   ar
@<TRIPOS>MOLECULE
*****
 34 38 0 0 0
SMALL
GASTEIGER

@<TRIPOS>ATOM
      1 N         142.4248  143.8433  161.0564 N.3     1  UNL1       -0.2712
      2 C         143.7485  143.1525  160.9136 C.3     1  UNL1        0.0738
      3 C         144.1241  142.5892  162.2521 C.3     1  UNL1        0.0372
      4 C         145.1744  141.8141  162.9911 C.3     1  UNL1        0.0245
      5 C         144.7320  141.6778  164.4179 C.3     1  UNL1        0.0909
      6 N         143.4082  142.3687  164.5607 N.pl3   1  UNL1       -0.3077
      7 C         143.0326  142.9320  163.2221 C.3     1  UNL1        0.0901
      8 C         141.9823  143.7071  162.4831 C.3     1  UNL1        0.0921
      9 C         142.6017  142.4773  165.8207 C.ar    1  UNL1        0.0478
     10 C         141.1282  142.7483  165.7471 C.ar    1  UNL1        0.0145
     11 C         140.3217  142.8569  167.0072 C.ar    1  UNL1        0.0051
     12 C         140.9887  142.6944  168.3409 C.ar    1  UNL1        0.0715
     13 C         142.4622  142.4234  168.4145 C.ar    1  UNL1        0.0051
     14 C         143.2687  142.3148  167.1545 C.ar    1  UNL1        0.0145
     15 C         140.1822  142.8030  169.6009 C.3     1  UNL1        0.4186
     16 F         139.3757  142.9115  170.8610 F       1  UNL1       -0.1659
     17 F         139.5505  141.4737  169.3112 F       1  UNL1       -0.1659
     18 F         140.8139  144.1322  169.8907 F       1  UNL1       -0.1659
     19 C         141.6751  144.5469  159.9642 C.3     1  UNL1        0.0731
     20 C         140.4394  143.9265  159.3826 C.3     1  UNL1        0.0294
     21 C         140.5579  142.8381  158.3573 C.3     1  UNL1        0.0666
     22 S         140.6303  141.4039  158.7908 S.3     1  UNL1       -0.0756
     23 C         138.8169  139.8721  161.8618 C.ar    1  UNL1        0.1699
     24 N         137.6513  140.3161  161.0286 N.ar    1  UNL1       -0.1281
     25 N         138.1887  140.9440  159.7768 N.ar    1  UNL1       -0.1221
     26 C         139.6865  140.8880  159.8363 C.ar    1  UNL1        0.1932
     27 N         140.0748  140.2256  161.1249 N.ar    1  UNL1       -0.2884
     28 C         141.4750  139.9627  161.5942 C.3     1  UNL1        0.1340
     29 C         138.1307  139.0159  167.0267 C.3     1  UNL1        0.1538
     30 N         138.4230  138.8002  165.5714 N.ar    1  UNL1       -0.2472
     31 C         138.3773  139.8473  164.4983 C.ar    1  UNL1        0.0997
     32 C         138.7385  139.1937  163.1973 C.ar    1  UNL1        0.0755
     33 C         139.0074  137.7428  163.4664 C.ar    1  UNL1        0.1247
     34 N         138.8124  137.4996  164.9337 N.ar    1  UNL1       -0.1675
@<TRIPOS>BOND
     1    29    30    1
     2    30    31   ar
     3    31    32   ar
     4    32    23    1
     5    23    24   ar
     6    24    25   ar
     7    25    26   ar
     8    26    22    1
     9    22    21    1
    10    21    20    1
    11    20    19    1
    12    19     1    1
    13     1     2    1
    14     2     3    1
    15     3     4    1
    16     4     5    1
    17     5     6    1
    18     6     9    1
    19     9    10   ar
    20    10    11   ar
    21    11    12   ar
    22    12    15    1
    23    15    16    1
    24    15    17    1
    25    15    18    1
    26    12    13   ar
    27    13    14   ar
    28     6     7    1
    29     7     8    1
    30    26    27   ar
    31    27    28    1
    32    32    33   ar
    33    33    34   ar
    34    34    30   ar
    35    27    23   ar
    36     8     1    1
    37     7     3    1
    38    14     9   ar
@<TRIPOS>MOLECULE
*****
 34 38 0 0 0
SMALL
GASTEIGER

@<TRIPOS>ATOM
      1 N         142.4510  143.2673  161.4018 N.3     1  UNL1       -0.2712
      2 C         143.1696  142.1587  160.6915 C.3     1  UNL1        0.0738
      3 C         143.5732  141.1381  161.7139 C.3     1  UNL1        0.0372
      4 C         144.2667  139.8221  161.9068 C.3     1  UNL1        0.0245
      5 C         144.2262  139.4866  163.3683 C.3     1  UNL1        0.0909
      6 N         143.5076  140.5953  164.0786 N.pl3   1  UNL1       -0.3077
      7 C         143.1040  141.6159  163.0562 C.3     1  UNL1        0.0901
      8 C         142.4104  142.9319  162.8632 C.3     1  UNL1        0.0921
      9 C         143.2396  140.6701  165.5526 C.ar    1  UNL1        0.0478
     10 C         143.2036  142.0019  166.2417 C.ar    1  UNL1        0.0145
     11 C         142.9356  142.0768  167.7157 C.ar    1  UNL1        0.0051
     12 C         142.7036  140.8198  168.5005 C.ar    1  UNL1        0.0715
     13 C         142.7395  139.4878  167.8114 C.ar    1  UNL1        0.0051
     14 C         143.0075  139.4130  166.3375 C.ar    1  UNL1        0.0145
     15 C         142.4356  140.8946  169.9745 C.3     1  UNL1        0.4186
     16 F         142.1676  140.9694  171.4485 F       1  UNL1       -0.1659
     17 F         141.0343  140.4115  169.7442 F       1  UNL1       -0.1659
     18 F         143.8369  141.3777  170.2047 F       1  UNL1       -0.1659
     19 C         141.8741  144.4958  160.7629 C.3     1  UNL1        0.0731
     20 C         140.3910  144.7199  160.7720 C.3     1  UNL1        0.0294
     21 C         139.7798  145.6551  161.7729 C.3     1  UNL1        0.0666
     22 S         138.7166  145.1616  162.7087 S.3     1  UNL1       -0.0756
     23 C         139.2852  141.8434  164.6407 C.ar    1  UNL1        0.1699
     24 N         139.6959  142.8530  165.6713 N.ar    1  UNL1       -0.1281
     25 N         139.5329  144.2189  165.0730 N.ar    1  UNL1       -0.1221
     26 C         139.0214  144.0534  163.6727 C.ar    1  UNL1        0.1932
     27 N         138.8683  142.5854  163.4054 N.ar    1  UNL1       -0.2884
     28 C         138.3835  141.9677  162.1274 C.3     1  UNL1        0.1340
     29 C         140.5886  136.7435  164.2253 C.3     1  UNL1        0.1538
     30 N         139.8895  138.0094  164.6238 N.ar    1  UNL1       -0.2472
     31 C         140.2498  139.3945  164.1747 C.ar    1  UNL1        0.0997
     32 C         139.2904  140.3536  164.8148 C.ar    1  UNL1        0.0755
     33 C         138.3371  139.5612  165.6595 C.ar    1  UNL1        0.1247
     34 N         138.7074  138.1125  165.5414 N.ar    1  UNL1       -0.1675
@<TRIPOS>BOND
     1    29    30    1
     2    30    31   ar
     3    31    32   ar
     4    32    23    1
     5    23    24   ar
     6    24    25   ar
     7    25    26   ar
     8    26    22    1
     9    22    21    1
    10    21    20    1
    11    20    19    1
    12    19     1    1
    13     1     2    1
    14     2     3    1
    15     3     4    1
    16     4     5    1
    17     5     6    1
    18     6     9    1
    19     9    10   ar
    20    10    11   ar
    21    11    12   ar
    22    12    15    1
    23    15    16    1
    24    15    17    1
    25    15    18    1
    26    12    13   ar
    27    13    14   ar
    28     6     7    1
    29     7     8    1
    30    26    27   ar
    31    27    28    1
    32    32    33   ar
    33    33    34   ar
    34    34    30   ar
    35    27    23   ar
    36     8     1    1
    37     7     3    1
    38    14     9   ar
@<TRIPOS>MOLECULE
*****
 34 38 0 0 0
SMALL
GASTEIGER

@<TRIPOS>ATOM
      1 N         141.5671  141.1522  159.1857 N.3     1  UNL1       -0.2712
      2 C         142.9469  140.5640  159.1677 C.3     1  UNL1        0.0738
      3 C         143.1041  139.7136  160.3933 C.3     1  UNL1        0.0372
      4 C         144.0540  138.8244  161.1396 C.3     1  UNL1        0.0245
      5 C         143.3586  138.3374  162.3763 C.3     1  UNL1        0.0909
      6 N         141.9788  138.9256  162.3941 N.pl3   1  UNL1       -0.3077
      7 C         141.8215  139.7761  161.1686 C.3     1  UNL1        0.0901
      8 C         140.8716  140.6653  160.4223 C.3     1  UNL1        0.0921
      9 C         140.9388  138.7025  163.4519 C.ar    1  UNL1        0.0478
     10 C         141.0598  139.3902  164.7794 C.ar    1  UNL1        0.0145
     11 C         140.0198  139.1671  165.8372 C.ar    1  UNL1        0.0051
     12 C         138.8590  138.2563  165.5673 C.ar    1  UNL1        0.0715
     13 C         138.7380  137.5685  164.2397 C.ar    1  UNL1        0.0051
     14 C         139.7780  137.7916  163.1820 C.ar    1  UNL1        0.0145
     15 C         137.8191  138.0332  166.6251 C.3     1  UNL1        0.4186
     16 F         136.7792  137.8100  167.6828 F       1  UNL1       -0.1659
     17 F         137.8333  136.5628  166.3288 F       1  UNL1       -0.1659
     18 F         137.8049  139.5035  166.9213 F       1  UNL1       -0.1659
     19 C         140.9850  142.0668  158.1490 C.3     1  UNL1        0.0731
     20 C         140.1026  143.2063  158.5646 C.3     1  UNL1        0.0294
     21 C         140.4996  144.6174  158.2461 C.3     1  UNL1        0.0666
     22 S         140.9775  145.5268  159.3390 S.3     1  UNL1       -0.0756
     23 C         140.6153  144.4313  163.0450 C.ar    1  UNL1        0.1699
     24 N         139.3720  145.2503  162.8619 N.ar    1  UNL1       -0.1281
     25 N         139.3564  145.7604  161.4514 N.ar    1  UNL1       -0.1221
     26 C         140.5900  145.2566  160.7627 C.ar    1  UNL1        0.1932
     27 N         141.3681  144.4352  161.7475 N.ar    1  UNL1       -0.2884
     28 C         142.6703  143.7398  161.4816 C.3     1  UNL1        0.1340
     29 C         140.5052  142.2676  167.8602 C.3     1  UNL1        0.1538
     30 N         140.9819  142.7368  166.5177 N.ar    1  UNL1       -0.2472
     31 C         140.1570  143.4535  165.4902 C.ar    1  UNL1        0.0997
     32 C         141.0326  143.7313  164.3043 C.ar    1  UNL1        0.0755
     33 C         142.3986  143.1862  164.5989 C.ar    1  UNL1        0.1247
     34 N         142.3673  142.5716  165.9668 N.ar    1  UNL1       -0.1675
@<TRIPOS>BOND
     1    29    30    1
     2    30    31   ar
     3    31    32   ar
     4    32    23    1
     5    23    24   ar
     6    24    25   ar
     7    25    26   ar
     8    26    22    1
     9    22    21    1
    10    21    20    1
    11    20    19    1
    12    19     1    1
    13     1     2    1
    14     2     3    1
    15     3     4    1
    16     4     5    1
    17     5     6    1
    18     6     9    1
    19     9    10   ar
    20    10    11   ar
    21    11    12   ar
    22    12    15    1
    23    15    16    1
    24    15    17    1
    25    15    18    1
    26    12    13   ar
    27    13    14   ar
    28     6     7    1
    29     7     8    1
    30    26    27   ar
    31    27    28    1
    32    32    33   ar
    33    33    34   ar
    34    34    30   ar
    35    27    23   ar
    36     8     1    1
    37     7     3    1
    38    14     9   ar
