@<TRIPOS>MOLECULE
*****
 54 61 0 0 0
SMALL
GASTEIGER

@<TRIPOS>ATOM
      1 N         139.5087  143.7730  158.9452 N.2     1  UNL1       -0.2043
      2 C         140.2245  142.5666  159.4766 C.2     1  UNL1        0.1746
      3 S         140.6740  141.3828  158.6725 S.3     1  UNL1       -0.0459
      4 C         141.3437  140.4168  159.6043 C.2     1  UNL1        0.1078
      5 C         141.9437  139.0960  159.2230 C.2     1  UNL1        0.1152
      6 S         141.9793  138.5092  157.8430 S.3     1  UNL1       -0.0446
      7 C         142.6710  137.1806  157.9220 C.2     1  UNL1        0.1833
      8 N         143.0629  136.9463  159.3508 N.2     1  UNL1       -0.1620
      9 N         142.6135  138.1300  160.1550 N.pl3   1  UNL1       -0.1828
     10 C         141.3082  141.0037  160.9843 C.2     1  UNL1        0.2658
     11 O         141.8663  140.3726  162.2254 O.2     1  UNL1       -0.2686
     12 N         140.6164  142.3323  160.9054 N.am    1  UNL1       -0.2129
     13 C         140.0393  144.6984  156.5762 C.ar    1  UNL1        0.1042
     14 C         139.7122  144.7934  155.1154 C.ar    1  UNL1        0.0141
     15 C         138.5273  144.0580  154.5628 C.ar    1  UNL1        0.0199
     16 C         137.6696  143.2277  155.4710 C.ar    1  UNL1        0.0830
     17 N         137.9967  143.1327  156.9318 N.ar    1  UNL1       -0.2259
     18 C         139.1816  143.8680  157.4844 C.ar    1  UNL1        0.1738
     19 C         140.5699  145.6237  154.2072 C.ar    1  UNL1        0.0008
     20 C         140.2034  147.0511  153.9274 C.ar    1  UNL1        0.0000
     21 C         141.0612  147.8815  153.0192 C.ar    1  UNL1        0.0000
     22 C         142.2854  147.2844  152.3907 C.ar    1  UNL1        0.0000
     23 C         142.6518  145.8570  152.6706 C.ar    1  UNL1        0.0000
     24 C         141.7941  145.0267  153.5788 C.ar    1  UNL1        0.0000
     25 C         136.4847  142.4923  154.9184 C.ar    1  UNL1        0.0177
     26 C         136.0611  142.7135  153.4966 C.ar    1  UNL1        0.0015
     27 C         134.8762  141.9782  152.9440 C.ar    1  UNL1        0.0000
     28 C         134.1150  141.0217  153.8131 C.ar    1  UNL1        0.0000
     29 C         134.5386  140.8005  155.2350 C.ar    1  UNL1        0.0000
     30 C         135.7235  141.5358  155.7876 C.ar    1  UNL1        0.0015
     31 N         142.4090  146.1690  157.6814 N.1     1  UNL1       -0.1907
     32 C         141.2242  145.4337  157.1288 C.1     1  UNL1        0.1035
     33 C         142.8008  138.3153  161.6316 C.ar    1  UNL1        0.0745
     34 C         141.7581  137.8178  162.5882 C.ar    1  UNL1        0.0167
     35 C         141.9454  138.0031  164.0648 C.ar    1  UNL1        0.0013
     36 C         143.1756  138.6859  164.5849 C.ar    1  UNL1        0.0001
     37 C         144.2184  139.1834  163.6283 C.ar    1  UNL1        0.0013
     38 C         144.0311  138.9981  162.1516 C.ar    1  UNL1        0.0167
     39 C         140.3614  143.2631  162.0536 C.ar    1  UNL1        0.0602
     40 C         141.5088  143.9585  162.7244 C.ar    1  UNL1        0.0153
     41 C         141.2538  144.8894  163.8726 C.ar    1  UNL1        0.0013
     42 C         139.8516  145.1248  164.3502 C.ar    1  UNL1        0.0001
     43 C         138.7041  144.4294  163.6795 C.ar    1  UNL1        0.0013
     44 C         138.9591  143.4985  162.5312 C.ar    1  UNL1        0.0153
     45 C         142.9260  136.2497  156.7738 C.2     1  UNL1        0.2750
     46 O         144.1888  136.3739  155.9738 O.2     1  UNL1       -0.2675
     47 N         141.9183  135.1947  156.4255 N.am    1  UNL1       -0.2787
     48 H         141.0895  135.1131  156.9505 H       1  UNL1        0.1552
     49 C         142.1734  134.2638  155.2772 C.ar    1  UNL1        0.0506
     50 C         141.6672  134.6062  153.9074 C.ar    1  UNL1        0.0147
     51 C         141.9222  133.6754  152.7591 C.ar    1  UNL1        0.0013
     52 C         142.6836  132.4021  152.9807 C.ar    1  UNL1        0.0001
     53 C         143.1899  132.0597  154.3505 C.ar    1  UNL1        0.0013
     54 C         142.9348  132.9905  155.4988 C.ar    1  UNL1        0.0147
@<TRIPOS>BOND
     1    31    32    3
     2    32    13    1
     3    13    14   ar
     4    14    19    1
     5    19    20   ar
     6    20    21   ar
     7    21    22   ar
     8    22    23   ar
     9    23    24   ar
    10    14    15   ar
    11    15    16   ar
    12    16    25    1
    13    25    26   ar
    14    26    27   ar
    15    27    28   ar
    16    28    29   ar
    17    29    30   ar
    18    16    17   ar
    19    17    18   ar
    20    18     1    1
    21     1     2    2
    22     2     3    1
    23     3     4    1
    24     4     5    2
    25     5     6    1
    26     6     7    1
    27     7    45    1
    28    45    46    2
    29    45    47   am
    30    47    49    1
    31    49    50   ar
    32    50    51   ar
    33    51    52   ar
    34    52    53   ar
    35    53    54   ar
    36     7     8    2
    37     8     9    1
    38     9    33    1
    39    33    34   ar
    40    34    35   ar
    41    35    36   ar
    42    36    37   ar
    43    37    38   ar
    44     4    10    1
    45    10    11    2
    46    10    12   am
    47    12    39    1
    48    39    40   ar
    49    40    41   ar
    50    41    42   ar
    51    42    43   ar
    52    43    44   ar
    53    18    13   ar
    54    12     2    1
    55    44    39   ar
    56    24    19   ar
    57    30    25   ar
    58     9     5    1
    59    38    33   ar
    60    54    49   ar
    61    47    48    1
@<TRIPOS>MOLECULE
*****
 54 61 0 0 0
SMALL
GASTEIGER

@<TRIPOS>ATOM
      1 N         139.3593  143.6570  159.0951 N.2     1  UNL1       -0.2043
      2 C         140.0776  142.4500  159.6216 C.2     1  UNL1        0.1746
      3 S         140.5547  141.2834  158.8083 S.3     1  UNL1       -0.0459
      4 C         141.2168  140.3101  159.7379 C.2     1  UNL1        0.1078
      5 C         141.8378  139.0015  159.3482 C.2     1  UNL1        0.1152
      6 S         141.9056  138.4365  157.9603 S.3     1  UNL1       -0.0446
      7 C         142.6097  137.1139  158.0323 C.2     1  UNL1        0.1833
      8 N         142.9770  136.8616  159.4645 N.2     1  UNL1       -0.1620
      9 N         142.5000  138.0282  160.2779 N.pl3   1  UNL1       -0.1828
     10 C         141.1490  140.8752  161.1258 C.2     1  UNL1        0.2658
     11 O         141.6902  140.2309  162.3675 O.2     1  UNL1       -0.2686
     12 N         140.4449  142.1977  161.0539 N.am    1  UNL1       -0.2129
     13 C         138.2263  142.7242  156.9512 C.ar    1  UNL1        0.1042
     14 C         137.9260  142.8384  155.4861 C.ar    1  UNL1        0.0141
     15 C         138.4581  143.9996  154.6996 C.ar    1  UNL1        0.0199
     16 C         139.2907  145.0465  155.3783 C.ar    1  UNL1        0.0830
     17 N         139.5911  144.9323  156.8434 N.ar    1  UNL1       -0.2259
     18 C         139.0589  143.7712  157.6299 C.ar    1  UNL1        0.1738
     19 C         137.0933  141.7915  154.8073 C.ar    1  UNL1        0.0008
     20 C         137.7536  140.6045  154.1707 C.ar    1  UNL1        0.0000
     21 C         136.9209  139.5576  153.4920 C.ar    1  UNL1        0.0000
     22 C         135.4281  139.6976  153.4498 C.ar    1  UNL1        0.0000
     23 C         134.7679  140.8846  154.0864 C.ar    1  UNL1        0.0000
     24 C         135.6005  141.9315  154.7651 C.ar    1  UNL1        0.0000
     25 C         139.8229  146.2077  154.5918 C.ar    1  UNL1        0.0177
     26 C         140.7984  145.9741  153.4766 C.ar    1  UNL1        0.0015
     27 C         141.3306  147.1352  152.6901 C.ar    1  UNL1        0.0000
     28 C         140.8873  148.5300  153.0189 C.ar    1  UNL1        0.0000
     29 C         139.9118  148.7636  154.1342 C.ar    1  UNL1        0.0000
     30 C         139.3796  147.6024  154.9206 C.ar    1  UNL1        0.0015
     31 N         137.1619  140.4019  158.5241 N.1     1  UNL1       -0.1907
     32 C         137.6941  141.5631  157.7377 C.1     1  UNL1        0.1035
     33 C         142.6574  138.1927  161.7605 C.ar    1  UNL1        0.0745
     34 C         143.8676  138.8848  162.3140 C.ar    1  UNL1        0.0167
     35 C         144.0251  139.0492  163.7966 C.ar    1  UNL1        0.0013
     36 C         142.9723  138.5215  164.7257 C.ar    1  UNL1        0.0001
     37 C         141.7620  137.8294  164.1722 C.ar    1  UNL1        0.0013
     38 C         141.6046  137.6650  162.6896 C.ar    1  UNL1        0.0167
     39 C         140.1585  143.1081  162.2111 C.ar    1  UNL1        0.0602
     40 C         138.7576  143.2437  162.7298 C.ar    1  UNL1        0.0153
     41 C         138.4711  144.1541  163.8870 C.ar    1  UNL1        0.0013
     42 C         139.5855  144.9289  164.5256 C.ar    1  UNL1        0.0001
     43 C         140.9865  144.7933  164.0069 C.ar    1  UNL1        0.0013
     44 C         141.2729  143.8830  162.8497 C.ar    1  UNL1        0.0153
     45 C         142.8961  136.2035  156.8751 C.2     1  UNL1        0.2750
     46 O         144.1717  136.3541  156.1002 O.2     1  UNL1       -0.2675
     47 N         141.9072  135.1425  156.4928 N.am    1  UNL1       -0.2787
     48 H         141.0701  135.0436  157.0014 H       1  UNL1        0.1552
     49 C         142.1938  134.2320  155.3356 C.ar    1  UNL1        0.0506
     50 C         141.7088  134.5896  153.9619 C.ar    1  UNL1        0.0147
     51 C         141.9953  133.6793  152.8047 C.ar    1  UNL1        0.0013
     52 C         142.7669  132.4113  153.0212 C.ar    1  UNL1        0.0001
     53 C         143.2518  132.0536  154.3949 C.ar    1  UNL1        0.0013
     54 C         142.9653  132.9640  155.5521 C.ar    1  UNL1        0.0147
@<TRIPOS>BOND
     1    31    32    3
     2    32    13    1
     3    13    14   ar
     4    14    19    1
     5    19    20   ar
     6    20    21   ar
     7    21    22   ar
     8    22    23   ar
     9    23    24   ar
    10    14    15   ar
    11    15    16   ar
    12    16    25    1
    13    25    26   ar
    14    26    27   ar
    15    27    28   ar
    16    28    29   ar
    17    29    30   ar
    18    16    17   ar
    19    17    18   ar
    20    18     1    1
    21     1     2    2
    22     2     3    1
    23     3     4    1
    24     4     5    2
    25     5     6    1
    26     6     7    1
    27     7    45    1
    28    45    46    2
    29    45    47   am
    30    47    49    1
    31    49    50   ar
    32    50    51   ar
    33    51    52   ar
    34    52    53   ar
    35    53    54   ar
    36     7     8    2
    37     8     9    1
    38     9    33    1
    39    33    34   ar
    40    34    35   ar
    41    35    36   ar
    42    36    37   ar
    43    37    38   ar
    44     4    10    1
    45    10    11    2
    46    10    12   am
    47    12    39    1
    48    39    40   ar
    49    40    41   ar
    50    41    42   ar
    51    42    43   ar
    52    43    44   ar
    53    18    13   ar
    54    12     2    1
    55    44    39   ar
    56    24    19   ar
    57    30    25   ar
    58     9     5    1
    59    38    33   ar
    60    54    49   ar
    61    47    48    1
@<TRIPOS>MOLECULE
*****
 54 61 0 0 0
SMALL
GASTEIGER

@<TRIPOS>ATOM
      1 N         143.7397  139.7189  158.7075 N.2     1  UNL1       -0.2043
      2 C         142.9204  140.8777  159.1932 C.2     1  UNL1        0.1746
      3 S         142.3506  141.9731  158.3415 S.3     1  UNL1       -0.0459
      4 C         141.6051  142.9170  159.2378 C.2     1  UNL1        0.1078
      5 C         140.8782  144.1554  158.8045 C.2     1  UNL1        0.1152
      6 S         140.7692  144.6675  157.3988 S.3     1  UNL1       -0.0446
      7 C         139.9563  145.9278  157.4264 C.2     1  UNL1        0.1833
      8 N         139.5630  146.1947  158.8491 N.2     1  UNL1       -0.1620
      9 N         140.1327  145.0993  159.7009 N.pl3   1  UNL1       -0.1828
     10 C         141.7142  142.4048  160.6435 C.2     1  UNL1        0.2658
     11 O         141.1154  143.0413  161.8626 O.2     1  UNL1       -0.2686
     12 N         142.5271  141.1445  160.6159 N.am    1  UNL1       -0.2129
     13 C         143.2109  138.6998  156.3768 C.ar    1  UNL1        0.1042
     14 C         143.5262  138.5639  154.9167 C.ar    1  UNL1        0.0141
     15 C         144.6855  139.3111  154.3270 C.ar    1  UNL1        0.0199
     16 C         145.5295  140.1941  155.1974 C.ar    1  UNL1        0.0830
     17 N         145.2143  140.3300  156.6576 N.ar    1  UNL1       -0.2259
     18 C         144.0550  139.5829  157.2473 C.ar    1  UNL1        0.1738
     19 C         142.6821  137.6808  154.0462 C.ar    1  UNL1        0.0008
     20 C         142.7523  136.1902  154.1979 C.ar    1  UNL1        0.0000
     21 C         141.9083  135.3071  153.3273 C.ar    1  UNL1        0.0000
     22 C         140.9940  135.9147  152.3051 C.ar    1  UNL1        0.0000
     23 C         140.9238  137.4054  152.1534 C.ar    1  UNL1        0.0000
     24 C         141.7679  138.2884  153.0239 C.ar    1  UNL1        0.0000
     25 C         146.6889  140.9413  154.6077 C.ar    1  UNL1        0.0177
     26 C         146.7718  141.1475  153.1243 C.ar    1  UNL1        0.0015
     27 C         147.9311  141.8947  152.5346 C.ar    1  UNL1        0.0000
     28 C         149.0075  142.4356  153.4283 C.ar    1  UNL1        0.0000
     29 C         148.9246  142.2294  154.9117 C.ar    1  UNL1        0.0000
     30 C         147.7652  141.4822  155.5014 C.ar    1  UNL1        0.0015
     31 N         140.8923  137.2055  157.5562 N.1     1  UNL1       -0.1907
     32 C         142.0516  137.9527  156.9665 C.1     1  UNL1        0.1035
     33 C         139.9833  144.9703  161.1878 C.ar    1  UNL1        0.0745
     34 C         141.0446  145.5132  162.0982 C.ar    1  UNL1        0.0167
     35 C         140.8952  145.3843  163.5851 C.ar    1  UNL1        0.0013
     36 C         139.6843  144.7125  164.1617 C.ar    1  UNL1        0.0001
     37 C         138.6229  144.1695  163.2513 C.ar    1  UNL1        0.0013
     38 C         138.7723  144.2985  161.7644 C.ar    1  UNL1        0.0167
     39 C         142.8839  140.2994  161.8027 C.ar    1  UNL1        0.0602
     40 C         141.9442  139.2277  162.2700 C.ar    1  UNL1        0.0153
     41 C         142.3011  138.3826  163.4567 C.ar    1  UNL1        0.0013
     42 C         143.5975  138.6091  164.1763 C.ar    1  UNL1        0.0001
     43 C         144.5373  139.6809  163.7090 C.ar    1  UNL1        0.0013
     44 C         144.1805  140.5260  162.5222 C.ar    1  UNL1        0.0153
     45 C         139.5995  146.7730  156.2397 C.2     1  UNL1        0.2750
     46 O         138.2712  146.5964  155.5654 O.2     1  UNL1       -0.2675
     47 N         140.5707  147.7947  155.7272 N.am    1  UNL1       -0.2787
     48 H         141.4425  147.9106  156.1697 H       1  UNL1        0.1552
     49 C         140.2137  148.6399  154.5404 C.ar    1  UNL1        0.0506
     50 C         139.5510  149.9707  154.7395 C.ar    1  UNL1        0.0147
     51 C         139.1940  150.8158  153.5528 C.ar    1  UNL1        0.0013
     52 C         139.4998  150.3301  152.1670 C.ar    1  UNL1        0.0001
     53 C         140.1626  148.9993  151.9679 C.ar    1  UNL1        0.0013
     54 C         140.5196  148.1542  153.1546 C.ar    1  UNL1        0.0147
@<TRIPOS>BOND
     1    31    32    3
     2    32    13    1
     3    13    14   ar
     4    14    19    1
     5    19    20   ar
     6    20    21   ar
     7    21    22   ar
     8    22    23   ar
     9    23    24   ar
    10    14    15   ar
    11    15    16   ar
    12    16    25    1
    13    25    26   ar
    14    26    27   ar
    15    27    28   ar
    16    28    29   ar
    17    29    30   ar
    18    16    17   ar
    19    17    18   ar
    20    18     1    1
    21     1     2    2
    22     2     3    1
    23     3     4    1
    24     4     5    2
    25     5     6    1
    26     6     7    1
    27     7    45    1
    28    45    46    2
    29    45    47   am
    30    47    49    1
    31    49    50   ar
    32    50    51   ar
    33    51    52   ar
    34    52    53   ar
    35    53    54   ar
    36     7     8    2
    37     8     9    1
    38     9    33    1
    39    33    34   ar
    40    34    35   ar
    41    35    36   ar
    42    36    37   ar
    43    37    38   ar
    44     4    10    1
    45    10    11    2
    46    10    12   am
    47    12    39    1
    48    39    40   ar
    49    40    41   ar
    50    41    42   ar
    51    42    43   ar
    52    43    44   ar
    53    18    13   ar
    54    12     2    1
    55    44    39   ar
    56    24    19   ar
    57    30    25   ar
    58     9     5    1
    59    38    33   ar
    60    54    49   ar
    61    47    48    1
@<TRIPOS>MOLECULE
*****
 54 61 0 0 0
SMALL
GASTEIGER

@<TRIPOS>ATOM
      1 N         139.6444  138.8968  158.8202 N.2     1  UNL1       -0.2043
      2 C         140.7937  139.7188  159.3237 C.2     1  UNL1        0.1746
      3 S         141.9674  140.1832  158.5132 S.3     1  UNL1       -0.0459
      4 C         142.8702  140.9721  159.4146 C.2     1  UNL1        0.1078
      5 C         144.1618  141.6235  159.0181 C.2     1  UNL1        0.1152
      6 S         144.7775  141.6003  157.6505 S.3     1  UNL1       -0.0446
      7 C         146.0608  142.3748  157.7067 C.2     1  UNL1        0.1833
      8 N         146.2382  142.8767  159.1090 N.2     1  UNL1       -0.1620
      9 N         145.0646  142.4124  159.9196 N.pl3   1  UNL1       -0.1828
     10 C         142.2544  140.9953  160.7822 C.2     1  UNL1        0.2658
     11 O         142.8223  141.6739  161.9934 O.2     1  UNL1       -0.2686
     12 N         140.9711  140.2207  160.7260 N.am    1  UNL1       -0.2129
     13 C         138.7985  139.2484  156.3890 C.ar    1  UNL1        0.1042
     14 C         138.7570  138.8173  154.9529 C.ar    1  UNL1        0.0141
     15 C         139.5201  137.6035  154.5119 C.ar    1  UNL1        0.0199
     16 C         140.3247  136.8209  155.5069 C.ar    1  UNL1        0.0830
     17 N         140.3661  137.2520  156.9430 N.ar    1  UNL1       -0.2259
     18 C         139.6030  138.4657  157.3840 C.ar    1  UNL1        0.1738
     19 C         137.9525  139.5999  153.9577 C.ar    1  UNL1        0.0008
     20 C         136.5585  139.1662  153.6131 C.ar    1  UNL1        0.0000
     21 C         135.7540  139.9489  152.6180 C.ar    1  UNL1        0.0000
     22 C         136.3435  141.1652  151.9675 C.ar    1  UNL1        0.0000
     23 C         137.7375  141.5988  152.3122 C.ar    1  UNL1        0.0000
     24 C         138.5419  140.8162  153.3073 C.ar    1  UNL1        0.0000
     25 C         141.0878  135.6071  155.0659 C.ar    1  UNL1        0.0177
     26 C         140.8935  135.0607  153.6826 C.ar    1  UNL1        0.0015
     27 C         141.6566  133.8470  153.2416 C.ar    1  UNL1        0.0000
     28 C         142.6140  133.1797  154.1839 C.ar    1  UNL1        0.0000
     29 C         142.8082  133.7260  155.5672 C.ar    1  UNL1        0.0000
     30 C         142.0451  134.9398  156.0082 C.ar    1  UNL1        0.0015
     31 N         137.2722  141.6759  157.2710 N.1     1  UNL1       -0.1907
     32 C         138.0354  140.4621  156.8300 C.1     1  UNL1        0.1035
     33 C         144.8342  142.6884  161.3759 C.ar    1  UNL1        0.0745
     34 C         144.0476  143.8949  161.7952 C.ar    1  UNL1        0.0167
     35 C         143.8172  144.1709  163.2514 C.ar    1  UNL1        0.0013
     36 C         144.3733  143.2406  164.2884 C.ar    1  UNL1        0.0001
     37 C         145.1599  142.0341  163.8690 C.ar    1  UNL1        0.0013
     38 C         145.3903  141.7580  162.4127 C.ar    1  UNL1        0.0167
     39 C         140.0304  139.9888  161.8711 C.ar    1  UNL1        0.0602
     40 C         139.9059  138.6210  162.4742 C.ar    1  UNL1        0.0153
     41 C         138.9652  138.3891  163.6193 C.ar    1  UNL1        0.0013
     42 C         138.1490  139.5248  164.1614 C.ar    1  UNL1        0.0001
     43 C         138.2735  140.8926  163.5583 C.ar    1  UNL1        0.0013
     44 C         139.2142  141.1246  162.4132 C.ar    1  UNL1        0.0153
     45 C         147.0015  142.6068  156.5617 C.2     1  UNL1        0.2750
     46 O         147.1110  143.9699  155.9452 O.2     1  UNL1       -0.2675
     47 N         147.8329  141.4758  156.0330 N.am    1  UNL1       -0.2787
     48 H         147.7612  140.5811  156.4376 H       1  UNL1        0.1552
     49 C         148.7737  141.7078  154.8879 C.ar    1  UNL1        0.0506
     50 C         148.2386  141.8429  153.4931 C.ar    1  UNL1        0.0147
     51 C         149.1792  142.0750  152.3481 C.ar    1  UNL1        0.0013
     52 C         150.6551  142.1719  152.5978 C.ar    1  UNL1        0.0001
     53 C         151.1903  142.0368  153.9925 C.ar    1  UNL1        0.0013
     54 C         150.2496  141.8048  155.1376 C.ar    1  UNL1        0.0147
@<TRIPOS>BOND
     1    31    32    3
     2    32    13    1
     3    13    14   ar
     4    14    19    1
     5    19    20   ar
     6    20    21   ar
     7    21    22   ar
     8    22    23   ar
     9    23    24   ar
    10    14    15   ar
    11    15    16   ar
    12    16    25    1
    13    25    26   ar
    14    26    27   ar
    15    27    28   ar
    16    28    29   ar
    17    29    30   ar
    18    16    17   ar
    19    17    18   ar
    20    18     1    1
    21     1     2    2
    22     2     3    1
    23     3     4    1
    24     4     5    2
    25     5     6    1
    26     6     7    1
    27     7    45    1
    28    45    46    2
    29    45    47   am
    30    47    49    1
    31    49    50   ar
    32    50    51   ar
    33    51    52   ar
    34    52    53   ar
    35    53    54   ar
    36     7     8    2
    37     8     9    1
    38     9    33    1
    39    33    34   ar
    40    34    35   ar
    41    35    36   ar
    42    36    37   ar
    43    37    38   ar
    44     4    10    1
    45    10    11    2
    46    10    12   am
    47    12    39    1
    48    39    40   ar
    49    40    41   ar
    50    41    42   ar
    51    42    43   ar
    52    43    44   ar
    53    18    13   ar
    54    12     2    1
    55    44    39   ar
    56    24    19   ar
    57    30    25   ar
    58     9     5    1
    59    38    33   ar
    60    54    49   ar
    61    47    48    1
@<TRIPOS>MOLECULE
*****
 54 61 0 0 0
SMALL
GASTEIGER

@<TRIPOS>ATOM
      1 N         138.6624  143.5456  158.6942 N.2     1  UNL1       -0.2043
      2 C         139.9928  143.2775  159.3329 C.2     1  UNL1        0.1746
      3 S         141.3149  143.2224  158.6264 S.3     1  UNL1       -0.0459
      4 C         142.3740  142.9283  159.6470 C.2     1  UNL1        0.1078
      5 C         143.8427  142.7859  159.3777 C.2     1  UNL1        0.1152
      6 S         144.5102  142.9126  158.0405 S.3     1  UNL1       -0.0446
      7 C         145.9818  142.6968  158.2347 C.2     1  UNL1        0.1833
      8 N         146.2238  142.4367  159.6920 N.2     1  UNL1       -0.1620
      9 N         144.9018  142.4917  160.3985 N.pl3   1  UNL1       -0.1828
     10 C         141.7065  142.8016  160.9844 C.2     1  UNL1        0.2658
     11 O         142.3905  142.5102  162.2872 O.2     1  UNL1       -0.2686
     12 N         140.2348  143.0174  160.7902 N.am    1  UNL1       -0.2129
     13 C         137.9555  142.7576  156.3215 C.ar    1  UNL1        0.1042
     14 C         137.8683  143.0014  154.8441 C.ar    1  UNL1        0.0141
     15 C         138.4008  144.2771  154.2618 C.ar    1  UNL1        0.0199
     16 C         139.0206  145.3089  155.1569 C.ar    1  UNL1        0.0830
     17 N         139.1077  145.0651  156.6343 N.ar    1  UNL1       -0.2259
     18 C         138.5752  143.7894  157.2167 C.ar    1  UNL1        0.1738
     19 C         137.2486  141.9696  153.9489 C.ar    1  UNL1        0.0008
     20 C         135.7773  142.0134  153.6602 C.ar    1  UNL1        0.0000
     21 C         135.1576  140.9816  152.7650 C.ar    1  UNL1        0.0000
     22 C         136.0092  139.9060  152.1585 C.ar    1  UNL1        0.0000
     23 C         137.4805  139.8622  152.4472 C.ar    1  UNL1        0.0000
     24 C         138.1002  140.8940  153.3424 C.ar    1  UNL1        0.0000
     25 C         139.5531  146.5846  154.5746 C.ar    1  UNL1        0.0177
     26 C         139.0573  147.9057  155.0833 C.ar    1  UNL1        0.0015
     27 C         139.5899  149.1813  154.5010 C.ar    1  UNL1        0.0000
     28 C         140.6182  149.1359  153.4099 C.ar    1  UNL1        0.0000
     29 C         141.1140  147.8148  152.9012 C.ar    1  UNL1        0.0000
     30 C         140.5814  146.5391  153.4835 C.ar    1  UNL1        0.0015
     31 N         136.8904  140.2063  157.4862 N.1     1  UNL1       -0.1907
     32 C         137.4229  141.4819  156.9039 C.1     1  UNL1        0.1035
     33 C         144.6781  142.2883  161.8677 C.ar    1  UNL1        0.0745
     34 C         144.6122  143.4716  162.7872 C.ar    1  UNL1        0.0167
     35 C         144.3885  143.2683  164.2564 C.ar    1  UNL1        0.0013
     36 C         144.2307  141.8816  164.8061 C.ar    1  UNL1        0.0001
     37 C         144.2966  140.6982  163.8866 C.ar    1  UNL1        0.0013
     38 C         144.5203  140.9016  162.4174 C.ar    1  UNL1        0.0167
     39 C         139.1889  142.9797  161.8647 C.ar    1  UNL1        0.0602
     40 C         138.8768  144.2182  162.6513 C.ar    1  UNL1        0.0153
     41 C         137.8309  144.1805  163.7258 C.ar    1  UNL1        0.0013
     42 C         137.0970  142.9044  164.0137 C.ar    1  UNL1        0.0001
     43 C         137.4090  141.6658  163.2271 C.ar    1  UNL1        0.0013
     44 C         138.4550  141.7035  162.1526 C.ar    1  UNL1        0.0153
     45 C         147.0278  142.7345  157.1603 C.2     1  UNL1        0.2750
     46 O         148.4818  142.7484  157.5291 O.2     1  UNL1       -0.2675
     47 N         146.6201  142.7582  155.7169 N.am    1  UNL1       -0.2787
     48 H         145.6659  142.7491  155.4748 H       1  UNL1        0.1552
     49 C         147.6662  142.7959  154.6425 C.ar    1  UNL1        0.0506
     50 C         148.6523  141.6726  154.5161 C.ar    1  UNL1        0.0147
     51 C         149.6984  141.7102  153.4418 C.ar    1  UNL1        0.0013
     52 C         149.7584  142.8712  152.4938 C.ar    1  UNL1        0.0001
     53 C         148.7723  143.9944  152.6202 C.ar    1  UNL1        0.0013
     54 C         147.7262  143.9568  153.6945 C.ar    1  UNL1        0.0147
@<TRIPOS>BOND
     1    31    32    3
     2    32    13    1
     3    13    14   ar
     4    14    19    1
     5    19    20   ar
     6    20    21   ar
     7    21    22   ar
     8    22    23   ar
     9    23    24   ar
    10    14    15   ar
    11    15    16   ar
    12    16    25    1
    13    25    26   ar
    14    26    27   ar
    15    27    28   ar
    16    28    29   ar
    17    29    30   ar
    18    16    17   ar
    19    17    18   ar
    20    18     1    1
    21     1     2    2
    22     2     3    1
    23     3     4    1
    24     4     5    2
    25     5     6    1
    26     6     7    1
    27     7    45    1
    28    45    46    2
    29    45    47   am
    30    47    49    1
    31    49    50   ar
    32    50    51   ar
    33    51    52   ar
    34    52    53   ar
    35    53    54   ar
    36     7     8    2
    37     8     9    1
    38     9    33    1
    39    33    34   ar
    40    34    35   ar
    41    35    36   ar
    42    36    37   ar
    43    37    38   ar
    44     4    10    1
    45    10    11    2
    46    10    12   am
    47    12    39    1
    48    39    40   ar
    49    40    41   ar
    50    41    42   ar
    51    42    43   ar
    52    43    44   ar
    53    18    13   ar
    54    12     2    1
    55    44    39   ar
    56    24    19   ar
    57    30    25   ar
    58     9     5    1
    59    38    33   ar
    60    54    49   ar
    61    47    48    1
@<TRIPOS>MOLECULE
*****
 54 61 0 0 0
SMALL
GASTEIGER

@<TRIPOS>ATOM
      1 N         142.6320  138.9279  159.4056 N.2     1  UNL1       -0.2043
      2 C         141.9993  140.1944  159.9012 C.2     1  UNL1        0.1746
      3 S         141.6576  141.3939  159.0678 S.3     1  UNL1       -0.0459
      4 C         141.0444  142.4247  159.9687 C.2     1  UNL1        0.1078
      5 C         140.5544  143.7800  159.5525 C.2     1  UNL1        0.1152
      6 S         140.5916  144.3424  158.1625 S.3     1  UNL1       -0.0446
      7 C         140.0014  145.7208  158.2043 C.2     1  UNL1        0.1833
      8 N         139.5995  146.0102  159.6201 N.2     1  UNL1       -0.1620
      9 N         139.9412  144.8107  160.4535 N.pl3   1  UNL1       -0.1828
     10 C         141.0072  141.8622  161.3588 C.2     1  UNL1        0.2658
     11 O         140.4735  142.5563  162.5768 O.2     1  UNL1       -0.2686
     12 N         141.5974  140.4838  161.3170 N.am    1  UNL1       -0.2129
     13 C         143.8422  139.8094  157.2824 C.ar    1  UNL1        0.1042
     14 C         144.1908  139.6632  155.8308 C.ar    1  UNL1        0.0141
     15 C         143.6775  138.4892  155.0508 C.ar    1  UNL1        0.0199
     16 C         142.8158  137.4614  155.7224 C.ar    1  UNL1        0.0830
     17 N         142.4673  137.6077  157.1740 N.ar    1  UNL1       -0.2259
     18 C         142.9805  138.7817  157.9540 C.ar    1  UNL1        0.1738
     19 C         145.0525  140.6910  155.1591 C.ar    1  UNL1        0.0008
     20 C         144.4396  141.6827  154.2153 C.ar    1  UNL1        0.0000
     21 C         145.3013  142.7105  153.5436 C.ar    1  UNL1        0.0000
     22 C         146.7760  142.7465  153.8157 C.ar    1  UNL1        0.0000
     23 C         147.3889  141.7547  154.7596 C.ar    1  UNL1        0.0000
     24 C         146.5272  140.7270  155.4312 C.ar    1  UNL1        0.0000
     25 C         142.3026  136.2874  154.9425 C.ar    1  UNL1        0.0177
     26 C         141.9956  134.9975  155.6437 C.ar    1  UNL1        0.0015
     27 C         141.4824  133.8235  154.8638 C.ar    1  UNL1        0.0000
     28 C         141.2762  133.9394  153.3826 C.ar    1  UNL1        0.0000
     29 C         141.5833  135.2293  152.6813 C.ar    1  UNL1        0.0000
     30 C         142.0965  136.4033  153.4613 C.ar    1  UNL1        0.0015
     31 N         144.8687  142.1574  158.8423 N.1     1  UNL1       -0.1907
     32 C         144.3555  140.9834  158.0623 C.1     1  UNL1        0.1035
     33 C         139.7104  144.6672  161.9286 C.ar    1  UNL1        0.0745
     34 C         138.3963  144.1511  162.4354 C.ar    1  UNL1        0.0167
     35 C         138.1654  144.0075  163.9105 C.ar    1  UNL1        0.0013
     36 C         139.2487  144.3801  164.8789 C.ar    1  UNL1        0.0001
     37 C         140.5628  144.8962  164.3722 C.ar    1  UNL1        0.0013
     38 C         140.7937  145.0397  162.8970 C.ar    1  UNL1        0.0167
     39 C         141.7575  139.5576  162.4859 C.ar    1  UNL1        0.0602
     40 C         140.9436  138.3000  162.5632 C.ar    1  UNL1        0.0153
     41 C         141.1037  137.3737  163.7321 C.ar    1  UNL1        0.0013
     42 C         142.0777  137.7049  164.8237 C.ar    1  UNL1        0.0001
     43 C         142.8917  138.9625  164.7464 C.ar    1  UNL1        0.0013
     44 C         142.7316  139.8888  163.5775 C.ar    1  UNL1        0.0153
     45 C         139.8412  146.6471  157.0354 C.2     1  UNL1        0.2750
     46 O         138.8501  147.7712  157.0996 O.2     1  UNL1       -0.2675
     47 N         140.6722  146.4495  155.8024 N.am    1  UNL1       -0.2787
     48 H         141.3228  145.7117  155.7602 H       1  UNL1        0.1552
     49 C         140.5120  147.3759  154.6335 C.ar    1  UNL1        0.0506
     50 C         139.7650  148.6664  154.7963 C.ar    1  UNL1        0.0147
     51 C         139.6047  149.5929  153.6275 C.ar    1  UNL1        0.0013
     52 C         140.1915  149.2287  152.2960 C.ar    1  UNL1        0.0001
     53 C         140.9385  147.9382  152.1332 C.ar    1  UNL1        0.0013
     54 C         141.0988  147.0117  153.3019 C.ar    1  UNL1        0.0147
@<TRIPOS>BOND
     1    31    32    3
     2    32    13    1
     3    13    14   ar
     4    14    19    1
     5    19    20   ar
     6    20    21   ar
     7    21    22   ar
     8    22    23   ar
     9    23    24   ar
    10    14    15   ar
    11    15    16   ar
    12    16    25    1
    13    25    26   ar
    14    26    27   ar
    15    27    28   ar
    16    28    29   ar
    17    29    30   ar
    18    16    17   ar
    19    17    18   ar
    20    18     1    1
    21     1     2    2
    22     2     3    1
    23     3     4    1
    24     4     5    2
    25     5     6    1
    26     6     7    1
    27     7    45    1
    28    45    46    2
    29    45    47   am
    30    47    49    1
    31    49    50   ar
    32    50    51   ar
    33    51    52   ar
    34    52    53   ar
    35    53    54   ar
    36     7     8    2
    37     8     9    1
    38     9    33    1
    39    33    34   ar
    40    34    35   ar
    41    35    36   ar
    42    36    37   ar
    43    37    38   ar
    44     4    10    1
    45    10    11    2
    46    10    12   am
    47    12    39    1
    48    39    40   ar
    49    40    41   ar
    50    41    42   ar
    51    42    43   ar
    52    43    44   ar
    53    18    13   ar
    54    12     2    1
    55    44    39   ar
    56    24    19   ar
    57    30    25   ar
    58     9     5    1
    59    38    33   ar
    60    54    49   ar
    61    47    48    1
@<TRIPOS>MOLECULE
*****
 54 61 0 0 0
SMALL
GASTEIGER

@<TRIPOS>ATOM
      1 N         144.0419  140.1325  156.9337 N.2     1  UNL1       -0.2043
      2 C         142.9980  141.0273  156.3342 C.2     1  UNL1        0.1746
      3 S         141.5130  140.8451  156.4421 S.3     1  UNL1       -0.0459
      4 C         140.8530  141.9666  155.6961 C.2     1  UNL1        0.1078
      5 C         139.3753  142.1761  155.5455 C.2     1  UNL1        0.1152
      6 S         138.2983  141.3008  156.1145 S.3     1  UNL1       -0.0446
      7 C         136.9726  141.8813  155.7201 C.2     1  UNL1        0.1833
      8 N         137.2304  143.1154  154.9074 N.2     1  UNL1       -0.1620
      9 N         138.7154  143.2977  154.7994 N.pl3   1  UNL1       -0.1828
     10 C         141.9301  142.8419  155.1271 C.2     1  UNL1        0.2658
     11 O         141.7186  144.0804  154.3076 O.2     1  UNL1       -0.2686
     12 N         143.2558  142.2614  155.5215 N.am    1  UNL1       -0.2129
     13 C         143.3521  139.0542  159.1946 C.ar    1  UNL1        0.1042
     14 C         142.9414  137.8487  159.9871 C.ar    1  UNL1        0.0141
     15 C         142.8096  136.5160  159.3113 C.ar    1  UNL1        0.0199
     16 C         143.0887  136.3889  157.8430 C.ar    1  UNL1        0.0830
     17 N         143.4994  137.5943  157.0505 N.ar    1  UNL1       -0.2259
     18 C         143.6312  138.9270  157.7263 C.ar    1  UNL1        0.1738
     19 C         142.6623  137.9758  161.4554 C.ar    1  UNL1        0.0008
     20 C         143.7399  138.4488  162.3855 C.ar    1  UNL1        0.0000
     21 C         143.4609  138.5759  163.8538 C.ar    1  UNL1        0.0000
     22 C         142.1041  138.2301  164.3921 C.ar    1  UNL1        0.0000
     23 C         141.0265  137.7571  163.4620 C.ar    1  UNL1        0.0000
     24 C         141.3056  137.6300  161.9937 C.ar    1  UNL1        0.0000
     25 C         142.9569  135.0562  157.1672 C.ar    1  UNL1        0.0177
     26 C         143.6769  133.8613  157.7184 C.ar    1  UNL1        0.0015
     27 C         143.5452  132.5287  157.0426 C.ar    1  UNL1        0.0000
     28 C         142.6935  132.3909  155.8156 C.ar    1  UNL1        0.0000
     29 C         141.9735  133.5858  155.2644 C.ar    1  UNL1        0.0000
     30 C         142.1053  134.9184  155.9402 C.ar    1  UNL1        0.0015
     31 N         143.6156  141.7194  160.5462 N.1     1  UNL1       -0.1907
     32 C         143.4838  140.3868  159.8704 C.1     1  UNL1        0.1035
     33 C         139.4172  144.4066  154.0730 C.ar    1  UNL1        0.0745
     34 C         139.5700  145.7499  154.7227 C.ar    1  UNL1        0.0167
     35 C         140.2718  146.8589  153.9963 C.ar    1  UNL1        0.0013
     36 C         140.8207  146.6246  152.6202 C.ar    1  UNL1        0.0001
     37 C         140.6678  145.2812  151.9704 C.ar    1  UNL1        0.0013
     38 C         139.9661  144.1722  152.6968 C.ar    1  UNL1        0.0167
     39 C         144.6027  142.8173  155.1656 C.ar    1  UNL1        0.0602
     40 C         144.7507  143.7225  153.9787 C.ar    1  UNL1        0.0153
     41 C         146.0976  144.2785  153.6228 C.ar    1  UNL1        0.0013
     42 C         147.2966  143.9293  154.4537 C.ar    1  UNL1        0.0001
     43 C         147.1487  143.0241  155.6406 C.ar    1  UNL1        0.0013
     44 C         145.8017  142.4681  155.9965 C.ar    1  UNL1        0.0153
     45 C         135.6257  141.3255  156.0760 C.2     1  UNL1        0.2750
     46 O         135.4978  140.3188  157.1807 O.2     1  UNL1       -0.2675
     47 N         134.4066  141.7761  155.3272 N.am    1  UNL1       -0.2787
     48 H         134.4905  142.4368  154.6021 H       1  UNL1        0.1552
     49 C         133.0596  141.2202  155.6831 C.ar    1  UNL1        0.0506
     50 C         131.8174  141.8480  155.1237 C.ar    1  UNL1        0.0147
     51 C         130.4705  141.2921  155.4796 C.ar    1  UNL1        0.0013
     52 C         130.3657  140.1084  156.3949 C.ar    1  UNL1        0.0001
     53 C         131.6079  139.4805  156.9542 C.ar    1  UNL1        0.0013
     54 C         132.9548  140.0364  156.5984 C.ar    1  UNL1        0.0147
@<TRIPOS>BOND
     1    31    32    3
     2    32    13    1
     3    13    14   ar
     4    14    19    1
     5    19    20   ar
     6    20    21   ar
     7    21    22   ar
     8    22    23   ar
     9    23    24   ar
    10    14    15   ar
    11    15    16   ar
    12    16    25    1
    13    25    26   ar
    14    26    27   ar
    15    27    28   ar
    16    28    29   ar
    17    29    30   ar
    18    16    17   ar
    19    17    18   ar
    20    18     1    1
    21     1     2    2
    22     2     3    1
    23     3     4    1
    24     4     5    2
    25     5     6    1
    26     6     7    1
    27     7    45    1
    28    45    46    2
    29    45    47   am
    30    47    49    1
    31    49    50   ar
    32    50    51   ar
    33    51    52   ar
    34    52    53   ar
    35    53    54   ar
    36     7     8    2
    37     8     9    1
    38     9    33    1
    39    33    34   ar
    40    34    35   ar
    41    35    36   ar
    42    36    37   ar
    43    37    38   ar
    44     4    10    1
    45    10    11    2
    46    10    12   am
    47    12    39    1
    48    39    40   ar
    49    40    41   ar
    50    41    42   ar
    51    42    43   ar
    52    43    44   ar
    53    18    13   ar
    54    12     2    1
    55    44    39   ar
    56    24    19   ar
    57    30    25   ar
    58     9     5    1
    59    38    33   ar
    60    54    49   ar
    61    47    48    1
@<TRIPOS>MOLECULE
*****
 54 61 0 0 0
SMALL
GASTEIGER

@<TRIPOS>ATOM
      1 N         141.9361  138.2176  160.7044 N.2     1  UNL1       -0.2043
      2 C         141.8511  138.8709  159.3569 C.2     1  UNL1        0.1746
      3 S         141.4696  140.2971  159.0909 S.3     1  UNL1       -0.0459
      4 C         141.5154  140.5204  157.6084 C.2     1  UNL1        0.1078
      5 C         141.2058  141.8060  156.9004 C.2     1  UNL1        0.1152
      6 S         140.7961  143.0941  157.5508 S.3     1  UNL1       -0.0446
      7 C         140.5886  144.1135  156.4701 C.2     1  UNL1        0.1833
      8 N         140.8701  143.4554  155.1519 N.2     1  UNL1       -0.1620
      9 N         141.2515  142.0292  155.4178 N.pl3   1  UNL1       -0.1828
     10 C         141.9251  139.2322  156.9581 C.2     1  UNL1        0.2658
     11 O         142.0971  139.0036  155.4856 O.2     1  UNL1       -0.2686
     12 N         142.1326  138.2129  158.0387 N.am    1  UNL1       -0.2129
     13 C         142.3105  140.3169  162.1887 C.ar    1  UNL1        0.1042
     14 C         141.9982  141.1057  163.4257 C.ar    1  UNL1        0.0141
     15 C         140.9991  140.5841  164.4155 C.ar    1  UNL1        0.0199
     16 C         140.3124  139.2737  164.1683 C.ar    1  UNL1        0.0830
     17 N         140.6247  138.4849  162.9313 N.ar    1  UNL1       -0.2259
     18 C         141.6238  139.0065  161.9415 C.ar    1  UNL1        0.1738
     19 C         142.6850  142.4162  163.6729 C.ar    1  UNL1        0.0008
     20 C         143.7891  142.5053  164.6842 C.ar    1  UNL1        0.0000
     21 C         144.4759  143.8157  164.9315 C.ar    1  UNL1        0.0000
     22 C         144.0584  145.0371  164.1673 C.ar    1  UNL1        0.0000
     23 C         142.9542  144.9480  163.1559 C.ar    1  UNL1        0.0000
     24 C         142.2675  143.6376  162.9087 C.ar    1  UNL1        0.0000
     25 C         139.3133  138.7521  165.1581 C.ar    1  UNL1        0.0177
     26 C         138.7943  139.6483  166.2432 C.ar    1  UNL1        0.0015
     27 C         137.7952  139.1267  167.2330 C.ar    1  UNL1        0.0000
     28 C         137.3151  137.7088  167.1378 C.ar    1  UNL1        0.0000
     29 C         137.8341  136.8126  166.0527 C.ar    1  UNL1        0.0000
     30 C         138.8332  137.3342  165.0629 C.ar    1  UNL1        0.0015
     31 N         144.3087  141.3601  160.2090 N.1     1  UNL1       -0.1907
     32 C         143.3096  140.8385  161.1988 C.1     1  UNL1        0.1035
     33 C         141.6149  141.0061  154.3829 C.ar    1  UNL1        0.0745
     34 C         140.5507  140.1361  153.7823 C.ar    1  UNL1        0.0167
     35 C         140.9141  139.1130  152.7474 C.ar    1  UNL1        0.0013
     36 C         142.3417  138.9597  152.3131 C.ar    1  UNL1        0.0001
     37 C         143.4059  139.8297  152.9137 C.ar    1  UNL1        0.0013
     38 C         143.0425  140.8529  153.9486 C.ar    1  UNL1        0.0167
     39 C         142.5485  136.7859  157.8366 C.ar    1  UNL1        0.0602
     40 C         143.2747  136.0548  158.9266 C.ar    1  UNL1        0.0153
     41 C         143.6906  134.6279  158.7245 C.ar    1  UNL1        0.0013
     42 C         143.3804  133.9320  157.4325 C.ar    1  UNL1        0.0001
     43 C         142.6542  134.6631  156.3424 C.ar    1  UNL1        0.0013
     44 C         142.2383  136.0900  156.5445 C.ar    1  UNL1        0.0153
     45 C         140.1727  145.5404  156.6721 C.2     1  UNL1        0.2750
     46 O         140.2051  146.1439  158.0450 O.2     1  UNL1       -0.2675
     47 N         139.7243  146.3639  155.5013 N.am    1  UNL1       -0.2787
     48 H         139.7029  145.9678  154.6003 H       1  UNL1        0.1552
     49 C         139.3083  147.7909  155.7034 C.ar    1  UNL1        0.0506
     50 C         139.5433  148.8012  154.6199 C.ar    1  UNL1        0.0147
     51 C         139.1274  150.2282  154.8219 C.ar    1  UNL1        0.0013
     52 C         138.4765  150.6448  156.1075 C.ar    1  UNL1        0.0001
     53 C         138.2416  149.6344  157.1911 C.ar    1  UNL1        0.0013
     54 C         138.6575  148.2075  156.9891 C.ar    1  UNL1        0.0147
@<TRIPOS>BOND
     1    31    32    3
     2    32    13    1
     3    13    14   ar
     4    14    19    1
     5    19    20   ar
     6    20    21   ar
     7    21    22   ar
     8    22    23   ar
     9    23    24   ar
    10    14    15   ar
    11    15    16   ar
    12    16    25    1
    13    25    26   ar
    14    26    27   ar
    15    27    28   ar
    16    28    29   ar
    17    29    30   ar
    18    16    17   ar
    19    17    18   ar
    20    18     1    1
    21     1     2    2
    22     2     3    1
    23     3     4    1
    24     4     5    2
    25     5     6    1
    26     6     7    1
    27     7    45    1
    28    45    46    2
    29    45    47   am
    30    47    49    1
    31    49    50   ar
    32    50    51   ar
    33    51    52   ar
    34    52    53   ar
    35    53    54   ar
    36     7     8    2
    37     8     9    1
    38     9    33    1
    39    33    34   ar
    40    34    35   ar
    41    35    36   ar
    42    36    37   ar
    43    37    38   ar
    44     4    10    1
    45    10    11    2
    46    10    12   am
    47    12    39    1
    48    39    40   ar
    49    40    41   ar
    50    41    42   ar
    51    42    43   ar
    52    43    44   ar
    53    18    13   ar
    54    12     2    1
    55    44    39   ar
    56    24    19   ar
    57    30    25   ar
    58     9     5    1
    59    38    33   ar
    60    54    49   ar
    61    47    48    1
