@<TRIPOS>MOLECULE
*****
 33 36 0 0 0
SMALL
GASTEIGER

@<TRIPOS>ATOM
      1 N         138.9690  140.1319  165.6845 N.3     1  UNL1       -0.2691
      2 C         138.0701  140.9763  164.8307 C.3     1  UNL1        0.0724
      3 C         138.5159  142.3396  164.3919 C.3     1  UNL1        0.0188
      4 C         139.8606  142.8586  164.8069 C.3     1  UNL1        0.0188
      5 C         140.7596  142.0143  165.6607 C.3     1  UNL1        0.0188
      6 C         140.3138  140.6509  166.0995 C.3     1  UNL1        0.0724
      7 C         138.5232  138.7686  166.1233 C.3     1  UNL1        0.0987
      8 O         138.2904  139.3562  168.6433 O.co2   1  UNL1       -0.5478
      9 C         137.8221  138.5959  167.4381 C.2     1  UNL1        0.0652
     10 O         136.6528  137.6628  167.5476 O.co2   1  UNL1       -0.5478
     11 C         138.7785  137.5780  165.2473 C.3     1  UNL1        0.0480
     12 C         139.4675  137.7527  163.9264 C.ar    1  UNL1       -0.0203
     13 C         140.9614  137.6482  163.8402 C.ar    1  UNL1       -0.0019
     14 C         141.6504  137.8228  162.5193 C.ar    1  UNL1        0.0293
     15 C         140.8455  138.1019  161.2847 C.ar    1  UNL1        0.1401
     16 F         141.5346  138.2766  159.9638 F       1  UNL1       -0.2042
     17 C         139.3517  138.2064  161.3709 C.ar    1  UNL1        0.0293
     18 C         138.6627  138.0318  162.6918 C.ar    1  UNL1       -0.0019
     19 C         140.3064  144.2220  164.3681 C.3     1  UNL1        0.0721
     20 N         140.6130  144.4818  162.9230 N.3     1  UNL1       -0.2724
     21 C         141.6542  143.6635  162.2183 C.3     1  UNL1        0.0758
     22 C         141.9608  143.9233  160.7731 C.3     1  UNL1        0.0609
     23 C         141.2263  145.0014  160.0326 C.3     1  UNL1        0.1687
     24 C         140.1852  145.8196  160.7372 C.3     1  UNL1        0.0609
     25 C         139.8785  145.5598  162.1824 C.3     1  UNL1        0.0758
     26 O         141.5329  145.2612  158.5875 O.3     1  UNL1       -0.4791
     27 C         140.4502  145.1362  157.5568 C.ar    1  UNL1        0.1384
     28 C         140.0620  146.3252  156.7289 C.ar    1  UNL1        0.0378
     29 C         138.9793  146.2003  155.6983 C.ar    1  UNL1        0.0145
     30 C         138.2849  144.8862  155.4955 C.ar    1  UNL1        0.0579
     31 CL        137.2023  144.7613  154.4649 Cl      1  UNL1       -0.0822
     32 C         138.6731  143.6972  156.3234 C.ar    1  UNL1        0.0145
     33 C         139.7558  143.8222  157.3541 C.ar    1  UNL1        0.0378
@<TRIPOS>UNITY_ATOM_ATTR
8 1
charge -1
@<TRIPOS>BOND
     1     8     9   ar
     2     9    10   ar
     3     9     7    1
     4     7    11    1
     5    11    12    1
     6    12    13   ar
     7    13    14   ar
     8    14    15   ar
     9    15    16    1
    10    15    17   ar
    11    17    18   ar
    12     7     1    1
    13     1     2    1
    14     2     3    1
    15     3     4    1
    16     4    19    1
    17    19    20    1
    18    20    21    1
    19    21    22    1
    20    22    23    1
    21    23    26    1
    22    26    27    1
    23    27    28   ar
    24    28    29   ar
    25    29    30   ar
    26    30    31    1
    27    30    32   ar
    28    32    33   ar
    29    23    24    1
    30    24    25    1
    31     4     5    1
    32     5     6    1
    33    18    12   ar
    34     6     1    1
    35    25    20    1
    36    33    27   ar
@<TRIPOS>MOLECULE
*****
 33 36 0 0 0
SMALL
GASTEIGER

@<TRIPOS>ATOM
      1 N         141.3393  140.2263  166.7543 N.3     1  UNL1       -0.2691
      2 C         141.5210  141.4903  165.9674 C.3     1  UNL1        0.0724
      3 C         142.6916  141.6350  165.0406 C.3     1  UNL1        0.0188
      4 C         143.6804  140.5158  164.9009 C.3     1  UNL1        0.0188
      5 C         143.4987  139.2518  165.6878 C.3     1  UNL1        0.0188
      6 C         142.3282  139.1070  166.6146 C.3     1  UNL1        0.0724
      7 C         140.1688  140.0815  167.6811 C.3     1  UNL1        0.0987
      8 O         140.3213  141.9661  169.4631 O.co2   1  UNL1       -0.5478
      9 C         140.2897  140.5075  169.1143 C.2     1  UNL1        0.0652
     10 O         140.3790  139.4750  170.1986 O.co2   1  UNL1       -0.5478
     11 C         138.8773  139.5108  167.1747 C.3     1  UNL1        0.0480
     12 C         138.6953  139.2527  165.7083 C.ar    1  UNL1       -0.0203
     13 C         138.1542  140.3321  164.8183 C.ar    1  UNL1       -0.0019
     14 C         137.9721  140.0739  163.3520 C.ar    1  UNL1        0.0293
     15 C         138.3312  138.7364  162.7756 C.ar    1  UNL1        0.1401
     16 F         138.1491  138.4783  161.3092 F       1  UNL1       -0.2042
     17 C         138.8722  137.6570  163.6656 C.ar    1  UNL1        0.0293
     18 C         139.0543  137.9152  165.1320 C.ar    1  UNL1       -0.0019
     19 C         144.8510  140.6606  163.9741 C.3     1  UNL1        0.0721
     20 N         144.6243  140.9283  162.5157 N.3     1  UNL1       -0.2724
     21 C         144.8265  142.3094  161.9664 C.3     1  UNL1        0.0758
     22 C         144.5999  142.5771  160.5080 C.3     1  UNL1        0.0609
     23 C         144.1710  141.4637  159.5989 C.3     1  UNL1        0.1687
     24 C         143.9688  140.0826  160.1482 C.3     1  UNL1        0.0609
     25 C         144.1954  139.8149  161.6066 C.3     1  UNL1        0.0758
     26 O         143.9444  141.7314  158.1405 O.3     1  UNL1       -0.4791
     27 C         145.1044  141.7346  157.1894 C.ar    1  UNL1        0.1384
     28 C         146.2881  142.6173  157.4533 C.ar    1  UNL1        0.0378
     29 C         147.4480  142.6206  156.5023 C.ar    1  UNL1        0.0145
     30 C         147.4243  141.7413  155.2873 C.ar    1  UNL1        0.0579
     31 CL        148.5842  141.7446  154.3363 Cl      1  UNL1       -0.0822
     32 C         146.2405  140.8586  155.0234 C.ar    1  UNL1        0.0145
     33 C         145.0806  140.8553  155.9744 C.ar    1  UNL1        0.0378
@<TRIPOS>UNITY_ATOM_ATTR
8 1
charge -1
@<TRIPOS>BOND
     1     8     9   ar
     2     9    10   ar
     3     9     7    1
     4     7    11    1
     5    11    12    1
     6    12    13   ar
     7    13    14   ar
     8    14    15   ar
     9    15    16    1
    10    15    17   ar
    11    17    18   ar
    12     7     1    1
    13     1     2    1
    14     2     3    1
    15     3     4    1
    16     4    19    1
    17    19    20    1
    18    20    21    1
    19    21    22    1
    20    22    23    1
    21    23    26    1
    22    26    27    1
    23    27    28   ar
    24    28    29   ar
    25    29    30   ar
    26    30    31    1
    27    30    32   ar
    28    32    33   ar
    29    23    24    1
    30    24    25    1
    31     4     5    1
    32     5     6    1
    33    18    12   ar
    34     6     1    1
    35    25    20    1
    36    33    27   ar
@<TRIPOS>MOLECULE
*****
 33 36 0 0 0
SMALL
GASTEIGER

@<TRIPOS>ATOM
      1 N         140.6152  140.5708  167.3271 N.3     1  UNL1       -0.2691
      2 C         141.7897  139.7353  166.9120 C.3     1  UNL1        0.0724
      3 C         142.9271  140.3610  166.1604 C.3     1  UNL1        0.0188
      4 C         142.8899  141.8223  165.8240 C.3     1  UNL1        0.0188
      5 C         141.7154  142.6579  166.2392 C.3     1  UNL1        0.0188
      6 C         140.5780  142.0321  166.9907 C.3     1  UNL1        0.0724
      7 C         139.4779  139.9450  168.0787 C.3     1  UNL1        0.0987
      8 O         140.6200  139.4006  170.3479 O.co2   1  UNL1       -0.5478
      9 C         139.4655  139.9709  169.5785 C.2     1  UNL1        0.0652
     10 O         138.2988  140.5670  170.3087 O.co2   1  UNL1       -0.5478
     11 C         138.3529  139.2933  167.3305 C.3     1  UNL1        0.0480
     12 C         138.4374  139.1303  165.8418 C.ar    1  UNL1       -0.0203
     13 C         138.0427  140.2618  164.9398 C.ar    1  UNL1       -0.0019
     14 C         138.1272  140.0987  163.4511 C.ar    1  UNL1        0.0293
     15 C         138.6064  138.8040  162.8644 C.ar    1  UNL1        0.1401
     16 F         138.6909  138.6410  161.3757 F       1  UNL1       -0.2042
     17 C         139.0011  137.6725  163.7664 C.ar    1  UNL1        0.0293
     18 C         138.9166  137.8356  165.2551 C.ar    1  UNL1       -0.0019
     19 C         144.0273  142.4481  165.0725 C.3     1  UNL1        0.0721
     20 N         143.9102  142.6854  163.5960 N.3     1  UNL1       -0.2724
     21 C         142.7887  143.5235  163.0576 C.3     1  UNL1        0.0758
     22 C         142.6716  143.7607  161.5812 C.3     1  UNL1        0.0609
     23 C         143.6761  143.1600  160.6431 C.3     1  UNL1        0.1687
     24 C         144.7977  142.3219  161.1814 C.3     1  UNL1        0.0609
     25 C         144.9147  142.0846  162.6579 C.3     1  UNL1        0.0758
     26 O         143.5591  143.3972  159.1666 O.3     1  UNL1       -0.4791
     27 C         143.9451  142.3167  158.2004 C.ar    1  UNL1        0.1384
     28 C         145.2699  142.3758  157.4992 C.ar    1  UNL1        0.0378
     29 C         145.6559  141.2954  156.5331 C.ar    1  UNL1        0.0145
     30 C         144.7172  140.1557  156.2680 C.ar    1  UNL1        0.0579
     31 CL        145.1033  139.0753  155.3018 Cl      1  UNL1       -0.0822
     32 C         143.3925  140.0966  156.9691 C.ar    1  UNL1        0.0145
     33 C         143.0065  141.1772  157.9353 C.ar    1  UNL1        0.0378
@<TRIPOS>UNITY_ATOM_ATTR
8 1
charge -1
@<TRIPOS>BOND
     1     8     9   ar
     2     9    10   ar
     3     9     7    1
     4     7    11    1
     5    11    12    1
     6    12    13   ar
     7    13    14   ar
     8    14    15   ar
     9    15    16    1
    10    15    17   ar
    11    17    18   ar
    12     7     1    1
    13     1     2    1
    14     2     3    1
    15     3     4    1
    16     4    19    1
    17    19    20    1
    18    20    21    1
    19    21    22    1
    20    22    23    1
    21    23    26    1
    22    26    27    1
    23    27    28   ar
    24    28    29   ar
    25    29    30   ar
    26    30    31    1
    27    30    32   ar
    28    32    33   ar
    29    23    24    1
    30    24    25    1
    31     4     5    1
    32     5     6    1
    33    18    12   ar
    34     6     1    1
    35    25    20    1
    36    33    27   ar
@<TRIPOS>MOLECULE
*****
 33 36 0 0 0
SMALL
GASTEIGER

@<TRIPOS>ATOM
      1 N         140.8349  139.9112  166.2508 N.3     1  UNL1       -0.2691
      2 C         141.7912  138.7642  166.1106 C.3     1  UNL1        0.0724
      3 C         143.0384  138.9232  165.2926 C.3     1  UNL1        0.0188
      4 C         143.3294  140.2292  164.6148 C.3     1  UNL1        0.0188
      5 C         142.3731  141.3764  164.7550 C.3     1  UNL1        0.0188
      6 C         141.1259  141.2174  165.5730 C.3     1  UNL1        0.0724
      7 C         139.5877  139.7522  167.0688 C.3     1  UNL1        0.0987
      8 O         137.2927  138.5369  167.1463 O.co2   1  UNL1       -0.5478
      9 C         138.2995  139.3654  166.4047 C.2     1  UNL1        0.0652
     10 O         138.0181  139.8069  164.9991 O.co2   1  UNL1       -0.5478
     11 C         139.6286  139.9801  168.5508 C.3     1  UNL1        0.0480
     12 C         140.6296  140.9318  169.1360 C.ar    1  UNL1       -0.0203
     13 C         140.3192  142.3976  169.2057 C.ar    1  UNL1       -0.0019
     14 C         141.3202  143.3491  169.7909 C.ar    1  UNL1        0.0293
     15 C         142.6316  142.8349  170.3063 C.ar    1  UNL1        0.1401
     16 F         143.6327  143.7865  170.8915 F       1  UNL1       -0.2042
     17 C         142.9421  141.3690  170.2365 C.ar    1  UNL1        0.0293
     18 C         141.9411  140.4175  169.6513 C.ar    1  UNL1       -0.0019
     19 C         144.5766  140.3882  163.7969 C.3     1  UNL1        0.0721
     20 N         144.4862  140.8561  162.3746 N.3     1  UNL1       -0.2724
     21 C         144.8648  142.2642  162.0227 C.3     1  UNL1        0.0758
     22 C         144.7744  142.7321  160.6004 C.3     1  UNL1        0.0609
     23 C         144.3054  141.7918  159.5300 C.3     1  UNL1        0.1687
     24 C         143.9268  140.3836  159.8818 C.3     1  UNL1        0.0609
     25 C         144.0172  139.9158  161.3041 C.3     1  UNL1        0.0758
     26 O         144.2150  142.2596  158.1077 O.3     1  UNL1       -0.4791
     27 C         145.3885  142.0949  157.1879 C.ar    1  UNL1        0.1384
     28 C         145.2798  141.2049  155.9854 C.ar    1  UNL1        0.0378
     29 C         146.4532  141.0402  155.0657 C.ar    1  UNL1        0.0145
     30 C         147.7354  141.7656  155.3484 C.ar    1  UNL1        0.0579
     31 CL        148.9087  141.6009  154.4287 Cl      1  UNL1       -0.0822
     32 C         147.8440  142.6557  156.5509 C.ar    1  UNL1        0.0145
     33 C         146.6706  142.8203  157.4707 C.ar    1  UNL1        0.0378
@<TRIPOS>UNITY_ATOM_ATTR
8 1
charge -1
@<TRIPOS>BOND
     1     8     9   ar
     2     9    10   ar
     3     9     7    1
     4     7    11    1
     5    11    12    1
     6    12    13   ar
     7    13    14   ar
     8    14    15   ar
     9    15    16    1
    10    15    17   ar
    11    17    18   ar
    12     7     1    1
    13     1     2    1
    14     2     3    1
    15     3     4    1
    16     4    19    1
    17    19    20    1
    18    20    21    1
    19    21    22    1
    20    22    23    1
    21    23    26    1
    22    26    27    1
    23    27    28   ar
    24    28    29   ar
    25    29    30   ar
    26    30    31    1
    27    30    32   ar
    28    32    33   ar
    29    23    24    1
    30    24    25    1
    31     4     5    1
    32     5     6    1
    33    18    12   ar
    34     6     1    1
    35    25    20    1
    36    33    27   ar
@<TRIPOS>MOLECULE
*****
 33 36 0 0 0
SMALL
GASTEIGER

@<TRIPOS>ATOM
      1 N         141.3985  140.6546  166.9825 N.3     1  UNL1       -0.2691
      2 C         140.0249  140.3190  166.4818 C.3     1  UNL1        0.0724
      3 C         139.2589  141.3183  165.6665 C.3     1  UNL1        0.0188
      4 C         139.8664  142.6532  165.3520 C.3     1  UNL1        0.0188
      5 C         141.2400  142.9888  165.8527 C.3     1  UNL1        0.0188
      6 C         142.0060  141.9896  166.6679 C.3     1  UNL1        0.0724
      7 C         142.1645  139.6554  167.7977 C.3     1  UNL1        0.0987
      8 O         143.1785  139.6011  170.1892 O.co2   1  UNL1       -0.5478
      9 C         141.9812  139.6029  169.2856 C.2     1  UNL1        0.0652
     10 O         140.6006  139.5522  169.8699 O.co2   1  UNL1       -0.5478
     11 C         143.1139  138.7086  167.1252 C.3     1  UNL1        0.0480
     12 C         143.1716  138.6420  165.6278 C.ar    1  UNL1       -0.0203
     13 C         144.2913  139.3140  164.8897 C.ar    1  UNL1       -0.0019
     14 C         144.3490  139.2473  163.3924 C.ar    1  UNL1        0.0293
     15 C         143.2871  138.5087  162.6330 C.ar    1  UNL1        0.1401
     16 F         143.3448  138.4420  161.1355 F       1  UNL1       -0.2042
     17 C         142.1674  137.8366  163.3710 C.ar    1  UNL1        0.0293
     18 C         142.1097  137.9033  164.8684 C.ar    1  UNL1       -0.0019
     19 C         139.1003  143.6524  164.5367 C.3     1  UNL1        0.0721
     20 N         139.6095  144.0688  163.1886 N.3     1  UNL1       -0.2724
     21 C         140.2835  143.0664  162.2991 C.3     1  UNL1        0.0758
     22 C         140.7927  143.4828  160.9510 C.3     1  UNL1        0.0609
     23 C         140.6279  144.9014  160.4924 C.3     1  UNL1        0.1687
     24 C         139.9540  145.9037  161.3818 C.3     1  UNL1        0.0609
     25 C         139.4448  145.4874  162.7300 C.3     1  UNL1        0.0758
     26 O         141.1371  145.3177  159.1443 O.3     1  UNL1       -0.4791
     27 C         140.2507  145.2031  157.9396 C.ar    1  UNL1        0.1384
     28 C         139.6217  143.8860  157.5938 C.ar    1  UNL1        0.0378
     29 C         138.7354  143.7713  156.3892 C.ar    1  UNL1        0.0145
     30 C         138.4780  144.9739  155.5302 C.ar    1  UNL1        0.0579
     31 CL        137.5917  144.8592  154.3256 Cl      1  UNL1       -0.0822
     32 C         139.1070  146.2910  155.8760 C.ar    1  UNL1        0.0145
     33 C         139.9934  146.4056  157.0807 C.ar    1  UNL1        0.0378
@<TRIPOS>UNITY_ATOM_ATTR
8 1
charge -1
@<TRIPOS>BOND
     1     8     9   ar
     2     9    10   ar
     3     9     7    1
     4     7    11    1
     5    11    12    1
     6    12    13   ar
     7    13    14   ar
     8    14    15   ar
     9    15    16    1
    10    15    17   ar
    11    17    18   ar
    12     7     1    1
    13     1     2    1
    14     2     3    1
    15     3     4    1
    16     4    19    1
    17    19    20    1
    18    20    21    1
    19    21    22    1
    20    22    23    1
    21    23    26    1
    22    26    27    1
    23    27    28   ar
    24    28    29   ar
    25    29    30   ar
    26    30    31    1
    27    30    32   ar
    28    32    33   ar
    29    23    24    1
    30    24    25    1
    31     4     5    1
    32     5     6    1
    33    18    12   ar
    34     6     1    1
    35    25    20    1
    36    33    27   ar
@<TRIPOS>MOLECULE
*****
 33 36 0 0 0
SMALL
GASTEIGER

@<TRIPOS>ATOM
      1 N         141.5612  139.5208  166.9021 N.3     1  UNL1       -0.2691
      2 C         140.1983  139.3787  166.2920 C.3     1  UNL1        0.0724
      3 C         140.0177  138.5745  165.0388 C.3     1  UNL1        0.0188
      4 C         141.2000  137.9124  164.3956 C.3     1  UNL1        0.0188
      5 C         142.5630  138.0544  165.0057 C.3     1  UNL1        0.0188
      6 C         142.7436  138.8586  166.2590 C.3     1  UNL1        0.0724
      7 C         141.7418  140.3250  168.1554 C.3     1  UNL1        0.0987
      8 O         140.4662  139.5707  170.2894 O.co2   1  UNL1       -0.5478
      9 C         141.7343  139.6433  169.4916 C.2     1  UNL1        0.0652
     10 O         142.9950  139.0343  170.0299 O.co2   1  UNL1       -0.5478
     11 C         141.9298  141.8108  168.0725 C.3     1  UNL1        0.0480
     12 C         142.1874  142.4614  166.7456 C.ar    1  UNL1       -0.0203
     13 C         143.5941  142.6280  166.2525 C.ar    1  UNL1       -0.0019
     14 C         143.8516  143.2786  164.9257 C.ar    1  UNL1        0.0293
     15 C         142.7024  143.7624  164.0920 C.ar    1  UNL1        0.1401
     16 F         142.9599  144.4130  162.7651 F       1  UNL1       -0.2042
     17 C         141.2956  143.5958  164.5851 C.ar    1  UNL1        0.0293
     18 C         141.0381  142.9453  165.9119 C.ar    1  UNL1       -0.0019
     19 C         141.0194  137.1081  163.1424 C.3     1  UNL1        0.0721
     20 N         141.2500  137.7439  161.8035 N.3     1  UNL1       -0.2724
     21 C         140.1286  138.4586  161.1095 C.3     1  UNL1        0.0758
     22 C         140.3592  139.0944  159.7706 C.3     1  UNL1        0.0609
     23 C         141.7112  139.0154  159.1257 C.3     1  UNL1        0.1687
     24 C         142.8326  138.3007  159.8197 C.3     1  UNL1        0.0609
     25 C         142.6020  137.6649  161.1586 C.3     1  UNL1        0.0758
     26 O         141.9418  139.6511  157.7869 O.3     1  UNL1       -0.4791
     27 C         143.2186  140.3910  157.5178 C.ar    1  UNL1        0.1384
     28 C         144.1522  139.9108  156.4464 C.ar    1  UNL1        0.0378
     29 C         145.4290  140.6506  156.1773 C.ar    1  UNL1        0.0145
     30 C         145.7723  141.8706  156.9797 C.ar    1  UNL1        0.0579
     31 CL        147.0491  142.6104  156.7106 Cl      1  UNL1       -0.0822
     32 C         144.8388  142.3508  158.0511 C.ar    1  UNL1        0.0145
     33 C         143.5619  141.6109  158.3202 C.ar    1  UNL1        0.0378
@<TRIPOS>UNITY_ATOM_ATTR
8 1
charge -1
@<TRIPOS>BOND
     1     8     9   ar
     2     9    10   ar
     3     9     7    1
     4     7    11    1
     5    11    12    1
     6    12    13   ar
     7    13    14   ar
     8    14    15   ar
     9    15    16    1
    10    15    17   ar
    11    17    18   ar
    12     7     1    1
    13     1     2    1
    14     2     3    1
    15     3     4    1
    16     4    19    1
    17    19    20    1
    18    20    21    1
    19    21    22    1
    20    22    23    1
    21    23    26    1
    22    26    27    1
    23    27    28   ar
    24    28    29   ar
    25    29    30   ar
    26    30    31    1
    27    30    32   ar
    28    32    33   ar
    29    23    24    1
    30    24    25    1
    31     4     5    1
    32     5     6    1
    33    18    12   ar
    34     6     1    1
    35    25    20    1
    36    33    27   ar
@<TRIPOS>MOLECULE
*****
 33 36 0 0 0
SMALL
GASTEIGER

@<TRIPOS>ATOM
      1 N         141.0220  139.5635  166.8883 N.3     1  UNL1       -0.2691
      2 C         139.5430  139.5434  166.6391 C.3     1  UNL1        0.0724
      3 C         138.9963  138.8521  165.4254 C.3     1  UNL1        0.0188
      4 C         139.9285  138.1810  164.4608 C.3     1  UNL1        0.0188
      5 C         141.4076  138.2011  164.7100 C.3     1  UNL1        0.0188
      6 C         141.9543  138.8924  165.9237 C.3     1  UNL1        0.0724
      7 C         141.5687  140.2548  168.1021 C.3     1  UNL1        0.0987
      8 O         142.9556  138.7900  169.7395 O.co2   1  UNL1       -0.5478
      9 C         141.6851  139.5116  169.3998 C.2     1  UNL1        0.0652
     10 O         140.5312  139.4899  170.3578 O.co2   1  UNL1       -0.5478
     11 C         141.9990  141.6893  168.0181 C.3     1  UNL1        0.0480
     12 C         142.0187  142.3901  166.6920 C.ar    1  UNL1       -0.0203
     13 C         143.3021  142.5070  165.9244 C.ar    1  UNL1       -0.0019
     14 C         143.3217  143.2077  164.5984 C.ar    1  UNL1        0.0293
     15 C         142.0579  143.7916  164.0398 C.ar    1  UNL1        0.1401
     16 F         142.0776  144.4923  162.7137 F       1  UNL1       -0.2042
     17 C         140.7745  143.6747  164.8074 C.ar    1  UNL1        0.0293
     18 C         140.7549  142.9739  166.1334 C.ar    1  UNL1       -0.0019
     19 C         139.3818  137.4897  163.2471 C.3     1  UNL1        0.0721
     20 N         139.0771  138.2785  162.0081 N.3     1  UNL1       -0.2724
     21 C         137.7648  138.9932  161.8778 C.3     1  UNL1        0.0758
     22 C         137.4601  139.7820  160.6389 C.3     1  UNL1        0.0609
     23 C         138.4678  139.8561  159.5303 C.3     1  UNL1        0.1687
     24 C         139.7801  139.1414  159.6605 C.3     1  UNL1        0.0609
     25 C         140.0848  138.3526  160.8995 C.3     1  UNL1        0.0758
     26 O         138.1631  140.6449  158.2914 O.3     1  UNL1       -0.4791
     27 C         138.7949  141.9896  158.0841 C.ar    1  UNL1        0.1384
     28 C         139.2811  142.7795  159.2629 C.ar    1  UNL1        0.0378
     29 C         139.9128  144.1241  159.0556 C.ar    1  UNL1        0.0145
     30 C         140.0583  144.6788  157.6695 C.ar    1  UNL1        0.0579
     31 CL        140.6900  146.0234  157.4623 Cl      1  UNL1       -0.0822
     32 C         139.5721  143.8889  156.4907 C.ar    1  UNL1        0.0145
     33 C         138.9404  142.5442  156.6980 C.ar    1  UNL1        0.0378
@<TRIPOS>UNITY_ATOM_ATTR
8 1
charge -1
@<TRIPOS>BOND
     1     8     9   ar
     2     9    10   ar
     3     9     7    1
     4     7    11    1
     5    11    12    1
     6    12    13   ar
     7    13    14   ar
     8    14    15   ar
     9    15    16    1
    10    15    17   ar
    11    17    18   ar
    12     7     1    1
    13     1     2    1
    14     2     3    1
    15     3     4    1
    16     4    19    1
    17    19    20    1
    18    20    21    1
    19    21    22    1
    20    22    23    1
    21    23    26    1
    22    26    27    1
    23    27    28   ar
    24    28    29   ar
    25    29    30   ar
    26    30    31    1
    27    30    32   ar
    28    32    33   ar
    29    23    24    1
    30    24    25    1
    31     4     5    1
    32     5     6    1
    33    18    12   ar
    34     6     1    1
    35    25    20    1
    36    33    27   ar
@<TRIPOS>MOLECULE
*****
 33 36 0 0 0
SMALL
GASTEIGER

@<TRIPOS>ATOM
      1 N         140.3521  140.2436  166.9663 N.3     1  UNL1       -0.2691
      2 C         139.0951  139.8180  166.2672 C.3     1  UNL1        0.0724
      3 C         139.1572  138.8034  165.1642 C.3     1  UNL1        0.0188
      4 C         140.4762  138.2143  164.7604 C.3     1  UNL1        0.0188
      5 C         141.7333  138.6399  165.4596 C.3     1  UNL1        0.0188
      6 C         141.6712  139.6546  166.5625 C.3     1  UNL1        0.0724
      7 C         140.2900  141.2583  168.0693 C.3     1  UNL1        0.0987
      8 O         139.1053  141.7421  170.3304 O.co2   1  UNL1       -0.5478
      9 C         139.9210  140.8331  169.4597 C.2     1  UNL1        0.0652
     10 O         140.3678  139.4988  169.9793 O.co2   1  UNL1       -0.5478
     11 C         140.5968  142.6982  167.7820 C.3     1  UNL1        0.0480
     12 C         140.2899  143.2755  166.4319 C.ar    1  UNL1       -0.0203
     13 C         141.2375  143.0573  165.2899 C.ar    1  UNL1       -0.0019
     14 C         140.9306  143.6346  163.9399 C.ar    1  UNL1        0.0293
     15 C         139.6760  144.4301  163.7320 C.ar    1  UNL1        0.1401
     16 F         139.3691  145.0074  162.3819 F       1  UNL1       -0.2042
     17 C         138.7284  144.6483  164.8741 C.ar    1  UNL1        0.0293
     18 C         139.0353  144.0710  166.2240 C.ar    1  UNL1       -0.0019
     19 C         140.5383  137.1996  163.6574 C.3     1  UNL1        0.0721
     20 N         140.7643  137.6429  162.2423 N.3     1  UNL1       -0.2724
     21 C         142.1593  137.7339  161.6985 C.3     1  UNL1        0.0758
     22 C         142.3853  138.1772  160.2835 C.3     1  UNL1        0.0609
     23 C         141.2162  138.5295  159.4122 C.3     1  UNL1        0.1687
     24 C         139.8212  138.4386  159.9559 C.3     1  UNL1        0.0609
     25 C         139.5952  137.9953  161.3710 C.3     1  UNL1        0.0758
     26 O         141.4422  138.9728  157.9971 O.3     1  UNL1       -0.4791
     27 C         141.6773  137.9549  156.9207 C.ar    1  UNL1        0.1384
     28 C         143.0641  137.7217  156.3990 C.ar    1  UNL1        0.0378
     29 C         143.2992  136.7038  155.3226 C.ar    1  UNL1        0.0145
     30 C         142.1474  135.9190  154.7680 C.ar    1  UNL1        0.0579
     31 CL        142.3825  134.9011  153.6916 Cl      1  UNL1       -0.0822
     32 C         140.7606  136.1522  155.2897 C.ar    1  UNL1        0.0145
     33 C         140.5255  137.1701  156.3661 C.ar    1  UNL1        0.0378
@<TRIPOS>UNITY_ATOM_ATTR
8 1
charge -1
@<TRIPOS>BOND
     1     8     9   ar
     2     9    10   ar
     3     9     7    1
     4     7    11    1
     5    11    12    1
     6    12    13   ar
     7    13    14   ar
     8    14    15   ar
     9    15    16    1
    10    15    17   ar
    11    17    18   ar
    12     7     1    1
    13     1     2    1
    14     2     3    1
    15     3     4    1
    16     4    19    1
    17    19    20    1
    18    20    21    1
    19    21    22    1
    20    22    23    1
    21    23    26    1
    22    26    27    1
    23    27    28   ar
    24    28    29   ar
    25    29    30   ar
    26    30    31    1
    27    30    32   ar
    28    32    33   ar
    29    23    24    1
    30    24    25    1
    31     4     5    1
    32     5     6    1
    33    18    12   ar
    34     6     1    1
    35    25    20    1
    36    33    27   ar
@<TRIPOS>MOLECULE
*****
 33 36 0 0 0
SMALL
GASTEIGER

@<TRIPOS>ATOM
      1 N         139.7784  141.3121  166.8608 N.3     1  UNL1       -0.2691
      2 C         139.9269  142.7733  166.5564 C.3     1  UNL1        0.0724
      3 C         139.3537  143.3377  165.2903 C.3     1  UNL1        0.0188
      4 C         138.6321  142.4408  164.3286 C.3     1  UNL1        0.0188
      5 C         138.4836  140.9795  164.6330 C.3     1  UNL1        0.0188
      6 C         139.0567  140.4151  165.8991 C.3     1  UNL1        0.0724
      7 C         140.3515  140.7477  168.1269 C.3     1  UNL1        0.0987
      8 O         139.7824  142.0966  170.2732 O.co2   1  UNL1       -0.5478
      9 C         139.5963  140.8797  169.4162 C.2     1  UNL1        0.0652
     10 O         138.6549  139.7949  169.8484 O.co2   1  UNL1       -0.5478
     11 C         141.6799  140.0514  168.1037 C.3     1  UNL1        0.0480
     12 C         142.5583  140.1518  166.8919 C.ar    1  UNL1       -0.0203
     13 C         143.0573  141.4909  166.4362 C.ar    1  UNL1       -0.0019
     14 C         143.9357  141.5912  165.2245 C.ar    1  UNL1        0.0293
     15 C         144.3151  140.3525  164.4685 C.ar    1  UNL1        0.1401
     16 F         145.1936  140.4528  163.2567 F       1  UNL1       -0.2042
     17 C         143.8161  139.0133  164.9242 C.ar    1  UNL1        0.0293
     18 C         142.9377  138.9130  166.1360 C.ar    1  UNL1       -0.0019
     19 C         138.0590  143.0052  163.0625 C.3     1  UNL1        0.0721
     20 N         138.9548  143.6913  162.0743 N.3     1  UNL1       -0.2724
     21 C         139.3895  142.9730  160.8312 C.3     1  UNL1        0.0758
     22 C         140.2853  143.6591  159.8429 C.3     1  UNL1        0.0609
     23 C         140.7465  145.0635  160.0977 C.3     1  UNL1        0.1687
     24 C         140.3118  145.7818  161.3407 C.3     1  UNL1        0.0609
     25 C         139.4159  145.0957  162.3290 C.3     1  UNL1        0.0758
     26 O         141.6423  145.7497  159.1094 O.3     1  UNL1       -0.4791
     27 C         141.3588  145.6435  157.6402 C.ar    1  UNL1        0.1384
     28 C         140.1744  146.3514  157.0519 C.ar    1  UNL1        0.0378
     29 C         139.8908  146.2452  155.5828 C.ar    1  UNL1        0.0145
     30 C         140.7916  145.4311  154.7020 C.ar    1  UNL1        0.0579
     31 CL        140.5081  145.3249  153.2329 Cl      1  UNL1       -0.0822
     32 C         141.9760  144.7232  155.2903 C.ar    1  UNL1        0.0145
     33 C         142.2596  144.8294  156.7595 C.ar    1  UNL1        0.0378
@<TRIPOS>UNITY_ATOM_ATTR
8 1
charge -1
@<TRIPOS>BOND
     1     8     9   ar
     2     9    10   ar
     3     9     7    1
     4     7    11    1
     5    11    12    1
     6    12    13   ar
     7    13    14   ar
     8    14    15   ar
     9    15    16    1
    10    15    17   ar
    11    17    18   ar
    12     7     1    1
    13     1     2    1
    14     2     3    1
    15     3     4    1
    16     4    19    1
    17    19    20    1
    18    20    21    1
    19    21    22    1
    20    22    23    1
    21    23    26    1
    22    26    27    1
    23    27    28   ar
    24    28    29   ar
    25    29    30   ar
    26    30    31    1
    27    30    32   ar
    28    32    33   ar
    29    23    24    1
    30    24    25    1
    31     4     5    1
    32     5     6    1
    33    18    12   ar
    34     6     1    1
    35    25    20    1
    36    33    27   ar
