@<TRIPOS>MOLECULE
*****
 30 32 0 0 0
SMALL
GASTEIGER

@<TRIPOS>ATOM
      1 N         139.1427  139.8850  166.7783 N.3     1  UNL1       -0.2715
      2 C         139.3294  140.9108  165.7000 C.3     1  UNL1        0.0610
      3 C         140.6933  141.4723  165.4271 C.3     1  UNL1        0.0375
      4 C         140.8801  142.4981  164.3487 C.3     1  UNL1        0.0950
      5 N         139.7030  142.9624  163.5433 N.pl3   1  UNL1       -0.2785
      6 C         138.3390  142.4009  163.8162 C.3     1  UNL1        0.0950
      7 C         138.1522  141.3751  164.8945 C.3     1  UNL1        0.0375
      8 C         139.8897  143.9882  162.4649 C.ar    1  UNL1        0.2163
      9 N         141.0480  144.0681  161.5151 N.ar    1  UNL1       -0.1804
     10 C         140.8251  145.2435  160.6102 C.ar    1  UNL1        0.2331
     11 N         141.7380  145.6934  159.5083 N.pl3   1  UNL1       -0.3262
     12 N         139.5292  145.8901  161.0008 N.ar    1  UNL1       -0.1354
     13 N         138.9511  145.1142  162.1470 N.ar    1  UNL1       -0.2450
     14 H         142.5711  145.2010  159.3274 H       1  UNL1        0.1452
     15 H         141.5041  146.4810  158.9660 H       1  UNL1        0.1452
     16 H         138.1043  145.3097  162.6095 H       1  UNL1        0.1919
     17 C         140.0007  139.9248  168.0080 C.3     1  UNL1        0.1016
     18 C         140.0367  142.0968  169.4332 C.3     1  UNL1        0.0332
     19 C         139.5490  140.6954  169.2130 C.3     1  UNL1        0.1265
     20 O         138.6097  140.0647  170.1979 O.3     1  UNL1       -0.3830
     21 H         138.4199  140.6933  170.9119 H       1  UNL1        0.2104
     22 C         138.0978  138.8194  166.6269 C.3     1  UNL1        0.0768
     23 C         138.3994  137.5800  165.8378 C.3     1  UNL1        0.0437
     24 C         139.2902  137.6560  164.6332 C.ar    1  UNL1       -0.0207
     25 C         138.7012  137.9283  163.2809 C.ar    1  UNL1       -0.0034
     26 C         139.5919  138.0044  162.0764 C.ar    1  UNL1        0.0111
     27 C         141.0716  137.8081  162.2243 C.ar    1  UNL1        0.0577
     28 CL        141.9624  137.8842  161.0198 Cl      1  UNL1       -0.0822
     29 C         141.6606  137.5358  163.5767 C.ar    1  UNL1        0.0111
     30 C         140.7699  137.4598  164.7811 C.ar    1  UNL1       -0.0034
@<TRIPOS>BOND
     1    19    18    1
     2    19    20    1
     3    19    17    1
     4    17     1    1
     5     1    22    1
     6    22    23    1
     7    23    24    1
     8    24    25   ar
     9    25    26   ar
    10    26    27   ar
    11    27    28    1
    12    27    29   ar
    13    29    30   ar
    14     1     2    1
    15     2     3    1
    16     3     4    1
    17     4     5    1
    18     5     8    1
    19     8     9   ar
    20     9    10   ar
    21    10    11    1
    22    10    12   ar
    23    12    13   ar
    24     5     6    1
    25     6     7    1
    26    30    24   ar
    27     7     2    1
    28    13     8   ar
    29    20    21    1
    30    11    14    1
    31    11    15    1
    32    13    16    1
@<TRIPOS>MOLECULE
*****
 30 32 0 0 0
SMALL
GASTEIGER

@<TRIPOS>ATOM
      1 N         138.2002  139.7756  163.3209 N.3     1  UNL1       -0.2715
      2 C         138.6667  140.0164  164.7260 C.3     1  UNL1        0.0610
      3 C         139.6623  141.1017  165.0101 C.3     1  UNL1        0.0375
      4 C         140.1288  141.3425  166.4153 C.3     1  UNL1        0.0950
      5 N         139.5996  140.4980  167.5363 N.pl3   1  UNL1       -0.2785
      6 C         138.6039  139.4126  167.2522 C.3     1  UNL1        0.0950
      7 C         138.1375  139.1718  165.8471 C.3     1  UNL1        0.0375
      8 C         140.0661  140.7388  168.9414 C.ar    1  UNL1        0.2163
      9 N         141.1268  141.7119  169.3638 N.ar    1  UNL1       -0.1804
     10 C         141.2700  141.6232  170.8543 C.ar    1  UNL1        0.2331
     11 N         142.2188  142.4221  171.6979 N.pl3   1  UNL1       -0.3262
     12 N         140.2980  140.5955  171.3532 N.ar    1  UNL1       -0.1354
     13 N         139.5540  140.0489  170.1709 N.ar    1  UNL1       -0.2450
     14 H         142.8212  143.0765  171.2759 H       1  UNL1        0.1452
     15 H         142.2390  142.2922  172.6736 H       1  UNL1        0.1452
     16 H         138.8526  139.3585  170.1973 H       1  UNL1        0.1919
     17 C         137.4228  140.8345  162.5969 C.3     1  UNL1        0.1016
     18 C         139.4729  141.6297  161.2131 C.3     1  UNL1        0.0332
     19 C         138.1450  141.9160  161.8494 C.3     1  UNL1        0.1265
     20 O         137.5395  143.2839  161.7383 O.3     1  UNL1       -0.3830
     21 H         138.1306  143.8586  161.2273 H       1  UNL1        0.2104
     22 C         138.5111  138.4758  162.6398 C.3     1  UNL1        0.0768
     23 C         139.5291  137.5450  163.2290 C.3     1  UNL1        0.0437
     24 C         140.9199  138.0335  163.5072 C.ar    1  UNL1       -0.0207
     25 C         141.5288  137.8310  164.8629 C.ar    1  UNL1       -0.0034
     26 C         142.9195  138.3195  165.1410 C.ar    1  UNL1        0.0111
     27 C         143.7012  139.0104  164.0633 C.ar    1  UNL1        0.0577
     28 CL        145.0920  139.4989  164.3414 Cl      1  UNL1       -0.0822
     29 C         143.0923  139.2129  162.7075 C.ar    1  UNL1        0.0111
     30 C         141.7016  138.7244  162.4295 C.ar    1  UNL1       -0.0034
@<TRIPOS>BOND
     1    19    18    1
     2    19    20    1
     3    19    17    1
     4    17     1    1
     5     1    22    1
     6    22    23    1
     7    23    24    1
     8    24    25   ar
     9    25    26   ar
    10    26    27   ar
    11    27    28    1
    12    27    29   ar
    13    29    30   ar
    14     1     2    1
    15     2     3    1
    16     3     4    1
    17     4     5    1
    18     5     8    1
    19     8     9   ar
    20     9    10   ar
    21    10    11    1
    22    10    12   ar
    23    12    13   ar
    24     5     6    1
    25     6     7    1
    26    30    24   ar
    27     7     2    1
    28    13     8   ar
    29    20    21    1
    30    11    14    1
    31    11    15    1
    32    13    16    1
@<TRIPOS>MOLECULE
*****
 30 32 0 0 0
SMALL
GASTEIGER

@<TRIPOS>ATOM
      1 N         138.5953  139.0957  163.5639 N.3     1  UNL1       -0.2715
      2 C         139.0188  139.4563  164.9570 C.3     1  UNL1        0.0610
      3 C         138.1171  139.1539  166.1170 C.3     1  UNL1        0.0375
      4 C         138.5407  139.5144  167.5100 C.3     1  UNL1        0.0950
      5 N         139.8659  140.1773  167.7431 N.pl3   1  UNL1       -0.2785
      6 C         140.7676  140.4797  166.5831 C.3     1  UNL1        0.0950
      7 C         140.3441  140.1192  165.1901 C.3     1  UNL1        0.0375
      8 C         140.2894  140.5379  169.1362 C.ar    1  UNL1        0.2163
      9 N         141.2899  141.5917  169.5087 N.ar    1  UNL1       -0.1804
     10 C         141.4056  141.6130  171.0041 C.ar    1  UNL1        0.2331
     11 N         142.2942  142.5163  171.8068 N.pl3   1  UNL1       -0.3262
     12 N         140.4767  140.5724  171.5558 N.ar    1  UNL1       -0.1354
     13 N         139.7869  139.9080  170.4014 N.ar    1  UNL1       -0.2450
     14 H         142.8715  143.1708  171.3510 H       1  UNL1        0.1452
     15 H         142.3002  142.4547  172.7893 H       1  UNL1        0.1452
     16 H         139.1212  139.1853  170.4632 H       1  UNL1        0.1919
     17 C         139.0119  137.7832  162.9694 C.3     1  UNL1        0.1016
     18 C         140.6592  138.4591  161.0774 C.3     1  UNL1        0.0332
     19 C         140.3496  137.6524  162.3035 C.3     1  UNL1        0.1265
     20 O         141.3778  136.7148  162.8638 O.3     1  UNL1       -0.3830
     21 H         142.1793  136.7507  162.3186 H       1  UNL1        0.2104
     22 C         137.7550  140.0478  162.7654 C.3     1  UNL1        0.0768
     23 C         137.4233  141.4016  163.3197 C.3     1  UNL1        0.0437
     24 C         138.4841  142.4590  163.4018 C.ar    1  UNL1       -0.0207
     25 C         138.3879  143.5390  164.4383 C.ar    1  UNL1       -0.0034
     26 C         139.4487  144.5963  164.5203 C.ar    1  UNL1        0.0111
     27 C         140.6057  144.5736  163.5659 C.ar    1  UNL1        0.0577
     28 CL        141.6665  145.6310  163.6481 Cl      1  UNL1       -0.0822
     29 C         140.7019  143.4936  162.5295 C.ar    1  UNL1        0.0111
     30 C         139.6411  142.4363  162.4474 C.ar    1  UNL1       -0.0034
@<TRIPOS>BOND
     1    19    18    1
     2    19    20    1
     3    19    17    1
     4    17     1    1
     5     1    22    1
     6    22    23    1
     7    23    24    1
     8    24    25   ar
     9    25    26   ar
    10    26    27   ar
    11    27    28    1
    12    27    29   ar
    13    29    30   ar
    14     1     2    1
    15     2     3    1
    16     3     4    1
    17     4     5    1
    18     5     8    1
    19     8     9   ar
    20     9    10   ar
    21    10    11    1
    22    10    12   ar
    23    12    13   ar
    24     5     6    1
    25     6     7    1
    26    30    24   ar
    27     7     2    1
    28    13     8   ar
    29    20    21    1
    30    11    14    1
    31    11    15    1
    32    13    16    1
@<TRIPOS>MOLECULE
*****
 30 32 0 0 0
SMALL
GASTEIGER

@<TRIPOS>ATOM
      1 N         142.1778  141.6340  167.9475 N.3     1  UNL1       -0.2715
      2 C         141.7864  142.3855  166.7098 C.3     1  UNL1        0.0610
      3 C         140.3601  142.8022  166.5049 C.3     1  UNL1        0.0375
      4 C         139.9686  143.5537  165.2672 C.3     1  UNL1        0.0950
      5 N         141.0034  143.8884  164.2342 N.pl3   1  UNL1       -0.2785
      6 C         142.4298  143.4716  164.4390 C.3     1  UNL1        0.0950
      7 C         142.8213  142.7202  165.6768 C.3     1  UNL1        0.0375
      8 C         140.6120  144.6398  162.9964 C.ar    1  UNL1        0.2163
      9 N         141.1139  144.3743  161.6080 N.ar    1  UNL1       -0.1804
     10 C         140.4619  145.3591  160.6832 C.ar    1  UNL1        0.2331
     11 N         140.6771  145.4532  159.2017 N.pl3   1  UNL1       -0.3262
     12 N         139.5571  146.2332  161.5001 N.ar    1  UNL1       -0.1354
     13 N         139.6499  145.7887  162.9297 N.ar    1  UNL1       -0.2450
     14 H         141.2946  144.8311  158.7535 H       1  UNL1        0.1452
     15 H         140.2008  146.1371  158.6776 H       1  UNL1        0.1452
     16 H         139.1645  146.1819  163.6906 H       1  UNL1        0.1919
     17 C         142.7734  142.3668  169.1129 C.3     1  UNL1        0.1016
     18 C         140.7501  143.7437  169.9851 C.3     1  UNL1        0.0332
     19 C         141.8971  142.8127  170.2457 C.3     1  UNL1        0.1265
     20 O         142.1677  142.3277  171.6391 O.3     1  UNL1       -0.3830
     21 H         141.5138  142.7078  172.2464 H       1  UNL1        0.2104
     22 C         141.9737  140.1497  168.0199 C.3     1  UNL1        0.0768
     23 C         142.4304  139.2739  166.8910 C.3     1  UNL1        0.0437
     24 C         141.4576  138.8472  165.8319 C.ar    1  UNL1       -0.0207
     25 C         140.0102  139.2235  165.9474 C.ar    1  UNL1       -0.0034
     26 C         139.0375  138.7968  164.8883 C.ar    1  UNL1        0.0111
     27 C         139.5122  137.9938  163.7137 C.ar    1  UNL1        0.0577
     28 CL        138.5394  137.5671  162.6545 Cl      1  UNL1       -0.0822
     29 C         140.9596  137.6176  163.5981 C.ar    1  UNL1        0.0111
     30 C         141.9323  138.0443  164.6572 C.ar    1  UNL1       -0.0034
@<TRIPOS>BOND
     1    19    18    1
     2    19    20    1
     3    19    17    1
     4    17     1    1
     5     1    22    1
     6    22    23    1
     7    23    24    1
     8    24    25   ar
     9    25    26   ar
    10    26    27   ar
    11    27    28    1
    12    27    29   ar
    13    29    30   ar
    14     1     2    1
    15     2     3    1
    16     3     4    1
    17     4     5    1
    18     5     8    1
    19     8     9   ar
    20     9    10   ar
    21    10    11    1
    22    10    12   ar
    23    12    13   ar
    24     5     6    1
    25     6     7    1
    26    30    24   ar
    27     7     2    1
    28    13     8   ar
    29    20    21    1
    30    11    14    1
    31    11    15    1
    32    13    16    1
@<TRIPOS>MOLECULE
*****
 30 32 0 0 0
SMALL
GASTEIGER

@<TRIPOS>ATOM
      1 N         143.1215  140.1698  162.7837 N.3     1  UNL1       -0.2715
      2 C         142.8921  140.6285  164.1934 C.3     1  UNL1        0.0610
      3 C         142.4731  142.0433  164.4629 C.3     1  UNL1        0.0375
      4 C         142.2437  142.5019  165.8725 C.3     1  UNL1        0.0950
      5 N         142.4334  141.5458  167.0126 N.pl3   1  UNL1       -0.2785
      6 C         142.8525  140.1309  166.7431 C.3     1  UNL1        0.0950
      7 C         143.0818  139.6723  165.3335 C.3     1  UNL1        0.0375
      8 C         142.2040  142.0045  168.4222 C.ar    1  UNL1        0.2163
      9 N         140.9481  141.8105  169.2192 N.ar    1  UNL1       -0.1804
     10 C         141.1582  142.4238  170.5719 C.ar    1  UNL1        0.2331
     11 N         140.1582  142.4581  171.6894 N.pl3   1  UNL1       -0.3262
     12 N         142.5439  142.9968  170.6109 N.ar    1  UNL1       -0.1354
     13 N         143.1903  142.7377  169.2823 N.ar    1  UNL1       -0.2450
     14 H         139.2694  142.0526  171.5672 H       1  UNL1        0.1452
     15 H         140.3906  142.8861  172.5450 H       1  UNL1        0.1452
     16 H         144.1017  143.0023  169.0208 H       1  UNL1        0.1919
     17 C         144.4298  140.4522  162.1067 C.3     1  UNL1        0.1016
     18 C         144.5751  143.0052  161.6473 C.3     1  UNL1        0.0332
     19 C         145.1113  141.7724  162.3127 C.3     1  UNL1        0.1265
     20 O         146.3290  141.8599  163.1842 O.3     1  UNL1       -0.3830
     21 H         146.6427  142.7774  163.2103 H       1  UNL1        0.2104
     22 C         142.0424  139.4287  162.0512 C.3     1  UNL1        0.0768
     23 C         140.6103  139.8496  162.1992 C.3     1  UNL1        0.0437
     24 C         139.8330  139.4493  163.4181 C.ar    1  UNL1       -0.0207
     25 C         139.8091  138.0145  163.8546 C.ar    1  UNL1       -0.0034
     26 C         139.0318  137.6142  165.0734 C.ar    1  UNL1        0.0111
     27 C         138.2784  138.6488  165.8557 C.ar    1  UNL1        0.0577
     28 CL        137.5011  138.2485  167.0746 Cl      1  UNL1       -0.0822
     29 C         138.3023  140.0837  165.4192 C.ar    1  UNL1        0.0111
     30 C         139.0796  140.4839  164.2004 C.ar    1  UNL1       -0.0034
@<TRIPOS>BOND
     1    19    18    1
     2    19    20    1
     3    19    17    1
     4    17     1    1
     5     1    22    1
     6    22    23    1
     7    23    24    1
     8    24    25   ar
     9    25    26   ar
    10    26    27   ar
    11    27    28    1
    12    27    29   ar
    13    29    30   ar
    14     1     2    1
    15     2     3    1
    16     3     4    1
    17     4     5    1
    18     5     8    1
    19     8     9   ar
    20     9    10   ar
    21    10    11    1
    22    10    12   ar
    23    12    13   ar
    24     5     6    1
    25     6     7    1
    26    30    24   ar
    27     7     2    1
    28    13     8   ar
    29    20    21    1
    30    11    14    1
    31    11    15    1
    32    13    16    1
@<TRIPOS>MOLECULE
*****
 30 32 0 0 0
SMALL
GASTEIGER

@<TRIPOS>ATOM
      1 N         141.4301  141.3353  166.5393 N.3     1  UNL1       -0.2715
      2 C         141.2979  142.0779  165.2427 C.3     1  UNL1        0.0610
      3 C         141.7512  141.4397  163.9632 C.3     1  UNL1        0.0375
      4 C         141.6189  142.1824  162.6667 C.3     1  UNL1        0.0950
      5 N         141.0334  143.5632  162.6497 N.pl3   1  UNL1       -0.2785
      6 C         140.5800  144.2015  163.9292 C.3     1  UNL1        0.0950
      7 C         140.7123  143.4589  165.2257 C.3     1  UNL1        0.0375
      8 C         140.9011  144.3058  161.3531 C.ar    1  UNL1        0.2163
      9 N         142.0164  144.6247  160.4019 N.ar    1  UNL1       -0.1804
     10 C         141.4349  145.3759  159.2411 C.ar    1  UNL1        0.2331
     11 N         142.1946  145.8912  158.0548 N.pl3   1  UNL1       -0.3262
     12 N         139.9604  145.5214  159.4748 N.ar    1  UNL1       -0.1354
     13 N         139.6305  144.8601  160.7801 N.ar    1  UNL1       -0.2450
     14 H         143.1661  145.7453  157.9912 H       1  UNL1        0.1452
     15 H         141.7217  146.3753  157.3398 H       1  UNL1        0.1452
     16 H         138.7369  144.8003  161.1890 H       1  UNL1        0.1919
     17 C         142.7711  140.8273  166.9792 C.3     1  UNL1        0.1016
     18 C         143.1847  138.4415  166.0374 C.3     1  UNL1        0.0332
     19 C         142.9794  139.3593  167.2060 C.3     1  UNL1        0.1265
     20 O         142.9824  138.8089  168.6014 O.3     1  UNL1       -0.3830
     21 H         143.1287  137.8505  168.5707 H       1  UNL1        0.2104
     22 C         140.2213  141.1007  167.3959 C.3     1  UNL1        0.0768
     23 C         139.3385  139.9156  167.1388 C.3     1  UNL1        0.0437
     24 C         139.0294  139.5020  165.7304 C.ar    1  UNL1       -0.0207
     25 C         138.2360  140.4107  164.8389 C.ar    1  UNL1       -0.0034
     26 C         137.9270  139.9971  163.4306 C.ar    1  UNL1        0.0111
     27 C         138.4113  138.6748  162.9138 C.ar    1  UNL1        0.0577
     28 CL        138.1022  138.2612  161.5054 Cl      1  UNL1       -0.0822
     29 C         139.2046  137.7662  163.8053 C.ar    1  UNL1        0.0111
     30 C         139.5137  138.1798  165.2137 C.ar    1  UNL1       -0.0034
@<TRIPOS>BOND
     1    19    18    1
     2    19    20    1
     3    19    17    1
     4    17     1    1
     5     1    22    1
     6    22    23    1
     7    23    24    1
     8    24    25   ar
     9    25    26   ar
    10    26    27   ar
    11    27    28    1
    12    27    29   ar
    13    29    30   ar
    14     1     2    1
    15     2     3    1
    16     3     4    1
    17     4     5    1
    18     5     8    1
    19     8     9   ar
    20     9    10   ar
    21    10    11    1
    22    10    12   ar
    23    12    13   ar
    24     5     6    1
    25     6     7    1
    26    30    24   ar
    27     7     2    1
    28    13     8   ar
    29    20    21    1
    30    11    14    1
    31    11    15    1
    32    13    16    1
@<TRIPOS>MOLECULE
*****
 30 32 0 0 0
SMALL
GASTEIGER

@<TRIPOS>ATOM
      1 N         142.6500  140.7939  162.6273 N.3     1  UNL1       -0.2715
      2 C         142.3593  141.1991  164.0420 C.3     1  UNL1        0.0610
      3 C         142.8054  140.3277  165.1784 C.3     1  UNL1        0.0375
      4 C         142.5148  140.7329  166.5931 C.3     1  UNL1        0.0950
      5 N         141.7781  142.0095  166.8713 N.pl3   1  UNL1       -0.2785
      6 C         141.3319  142.8810  165.7349 C.3     1  UNL1        0.0950
      7 C         141.6226  142.4758  164.3202 C.3     1  UNL1        0.0375
      8 C         141.4874  142.4147  168.2860 C.ar    1  UNL1        0.2163
      9 N         140.1273  142.6428  168.8762 N.ar    1  UNL1       -0.1804
     10 C         140.3052  143.0320  170.3139 C.ar    1  UNL1        0.2331
     11 N         139.2061  143.3524  171.2830 N.pl3   1  UNL1       -0.3262
     12 N         141.7752  143.0445  170.6123 N.ar    1  UNL1       -0.1354
     13 N         142.5058  142.6630  169.3590 N.ar    1  UNL1       -0.2450
     14 H         138.2665  143.3164  170.9911 H       1  UNL1        0.1452
     15 H         139.4242  143.5987  172.2109 H       1  UNL1        0.1452
     16 H         143.4823  142.5886  169.2583 H       1  UNL1        0.1919
     17 C         144.0667  140.5749  162.1858 C.3     1  UNL1        0.1016
     18 C         145.9188  141.5757  163.7083 C.3     1  UNL1        0.0332
     19 C         145.1050  141.6248  162.4491 C.3     1  UNL1        0.1265
     20 O         145.3297  142.7239  161.4533 O.3     1  UNL1       -0.3830
     21 H         146.0301  143.3131  161.7746 H       1  UNL1        0.2104
     22 C         141.5238  140.6078  161.6540 C.3     1  UNL1        0.0768
     23 C         140.6071  139.4277  161.7845 C.3     1  UNL1        0.0437
     24 C         139.8741  139.1860  163.0708 C.ar    1  UNL1       -0.0207
     25 C         140.0827  137.9056  163.8237 C.ar    1  UNL1       -0.0034
     26 C         139.3497  137.6639  165.1099 C.ar    1  UNL1        0.0111
     27 C         138.4082  138.7027  165.6432 C.ar    1  UNL1        0.0577
     28 CL        137.6752  138.4610  166.9294 Cl      1  UNL1       -0.0822
     29 C         138.1996  139.9831  164.8903 C.ar    1  UNL1        0.0111
     30 C         138.9325  140.2248  163.6041 C.ar    1  UNL1       -0.0034
@<TRIPOS>BOND
     1    19    18    1
     2    19    20    1
     3    19    17    1
     4    17     1    1
     5     1    22    1
     6    22    23    1
     7    23    24    1
     8    24    25   ar
     9    25    26   ar
    10    26    27   ar
    11    27    28    1
    12    27    29   ar
    13    29    30   ar
    14     1     2    1
    15     2     3    1
    16     3     4    1
    17     4     5    1
    18     5     8    1
    19     8     9   ar
    20     9    10   ar
    21    10    11    1
    22    10    12   ar
    23    12    13   ar
    24     5     6    1
    25     6     7    1
    26    30    24   ar
    27     7     2    1
    28    13     8   ar
    29    20    21    1
    30    11    14    1
    31    11    15    1
    32    13    16    1
@<TRIPOS>MOLECULE
*****
 30 32 0 0 0
SMALL
GASTEIGER

@<TRIPOS>ATOM
      1 N         138.7007  139.1256  164.0948 N.3     1  UNL1       -0.2715
      2 C         139.2629  139.7377  165.3434 C.3     1  UNL1        0.0610
      3 C         138.7266  139.3327  166.6844 C.3     1  UNL1        0.0375
      4 C         139.2889  139.9448  167.9331 C.3     1  UNL1        0.0950
      5 N         140.3875  140.9619  167.8408 N.pl3   1  UNL1       -0.2785
      6 C         140.9239  141.3670  166.4998 C.3     1  UNL1        0.0950
      7 C         140.3616  140.7549  165.2511 C.3     1  UNL1        0.0375
      8 C         140.9498  141.5740  169.0895 C.ar    1  UNL1        0.2163
      9 N         142.0766  142.5619  169.1570 N.ar    1  UNL1       -0.1804
     10 C         142.3071  142.9040  170.5992 C.ar    1  UNL1        0.2331
     11 N         143.3405  143.8556  171.1252 N.pl3   1  UNL1       -0.3262
     12 N         141.3229  142.1277  171.4229 N.ar    1  UNL1       -0.1354
     13 N         140.4840  141.3057  170.4899 N.ar    1  UNL1       -0.2450
     14 H         143.9444  144.3203  170.5018 H       1  UNL1        0.1452
     15 H         143.4149  144.0153  172.0938 H       1  UNL1        0.1452
     16 H         139.7556  140.6969  170.7508 H       1  UNL1        0.1919
     17 C         139.0604  137.7180  163.7218 C.3     1  UNL1        0.1016
     18 C         141.4275  137.0053  164.5211 C.3     1  UNL1        0.0332
     19 C         140.4848  137.3652  163.4112 C.3     1  UNL1        0.1265
     20 O         140.9666  137.3722  161.9907 O.3     1  UNL1       -0.3830
     21 H         141.9037  137.1229  161.9658 H       1  UNL1        0.2104
     22 C         137.7786  139.9213  163.2190 C.3     1  UNL1        0.0768
     23 C         137.4068  141.3236  163.5999 C.3     1  UNL1        0.0437
     24 C         138.1316  142.4847  162.9860 C.ar    1  UNL1       -0.0207
     25 C         139.0633  142.2619  161.8318 C.ar    1  UNL1       -0.0034
     26 C         139.7880  143.4229  161.2180 C.ar    1  UNL1        0.0111
     27 C         139.5809  144.8068  161.7584 C.ar    1  UNL1        0.0577
     28 CL        140.3056  145.9679  161.1445 Cl      1  UNL1       -0.0822
     29 C         138.6492  145.0296  162.9125 C.ar    1  UNL1        0.0111
     30 C         137.9245  143.8686  163.5263 C.ar    1  UNL1       -0.0034
@<TRIPOS>BOND
     1    19    18    1
     2    19    20    1
     3    19    17    1
     4    17     1    1
     5     1    22    1
     6    22    23    1
     7    23    24    1
     8    24    25   ar
     9    25    26   ar
    10    26    27   ar
    11    27    28    1
    12    27    29   ar
    13    29    30   ar
    14     1     2    1
    15     2     3    1
    16     3     4    1
    17     4     5    1
    18     5     8    1
    19     8     9   ar
    20     9    10   ar
    21    10    11    1
    22    10    12   ar
    23    12    13   ar
    24     5     6    1
    25     6     7    1
    26    30    24   ar
    27     7     2    1
    28    13     8   ar
    29    20    21    1
    30    11    14    1
    31    11    15    1
    32    13    16    1
@<TRIPOS>MOLECULE
*****
 30 32 0 0 0
SMALL
GASTEIGER

@<TRIPOS>ATOM
      1 N         141.4580  141.4346  167.1001 N.3     1  UNL1       -0.2715
      2 C         141.3027  142.1489  165.7903 C.3     1  UNL1        0.0610
      3 C         142.4785  142.8451  165.1716 C.3     1  UNL1        0.0375
      4 C         142.3232  143.5594  163.8618 C.3     1  UNL1        0.0950
      5 N         140.9920  143.5776  163.1706 N.pl3   1  UNL1       -0.2785
      6 C         139.8161  142.8814  163.7893 C.3     1  UNL1        0.0950
      7 C         139.9715  142.1671  165.0991 C.3     1  UNL1        0.0375
      8 C         140.8367  144.2919  161.8608 C.ar    1  UNL1        0.2163
      9 N         141.9211  144.5290  160.8518 N.ar    1  UNL1       -0.1804
     10 C         141.3243  145.2782  159.6974 C.ar    1  UNL1        0.2331
     11 N         142.0528  145.7233  158.4641 N.pl3   1  UNL1       -0.3262
     12 N         139.8711  145.5041  159.9929 N.ar    1  UNL1       -0.1354
     13 N         139.5698  144.8945  161.3300 N.ar    1  UNL1       -0.2450
     14 H         143.0120  145.5269  158.3611 H       1  UNL1        0.1452
     15 H         141.5718  146.2119  157.7576 H       1  UNL1        0.1452
     16 H         138.6943  144.8906  161.7801 H       1  UNL1        0.1919
     17 C         140.3515  141.4745  168.1119 C.3     1  UNL1        0.1016
     18 C         138.9261  139.4484  167.3287 C.3     1  UNL1        0.0332
     19 C         139.5813  140.2274  168.4306 C.3     1  UNL1        0.1265
     20 O         139.4661  139.7593  169.8510 O.3     1  UNL1       -0.3830
     21 H         138.9396  138.9452  169.8815 H       1  UNL1        0.2104
     22 C         142.7200  140.6803  167.3980 C.3     1  UNL1        0.0768
     23 C         142.8487  139.2428  166.9895 C.3     1  UNL1        0.0437
     24 C         142.7826  138.8665  165.5389 C.ar    1  UNL1       -0.0207
     25 C         141.6328  138.0502  165.0275 C.ar    1  UNL1       -0.0034
     26 C         141.5667  137.6739  163.5770 C.ar    1  UNL1        0.0111
     27 C         142.6504  138.1140  162.6379 C.ar    1  UNL1        0.0577
     28 CL        142.5843  137.7377  161.1873 Cl      1  UNL1       -0.0822
     29 C         143.8002  138.9303  163.1493 C.ar    1  UNL1        0.0111
     30 C         143.8663  139.3066  164.5998 C.ar    1  UNL1       -0.0034
@<TRIPOS>BOND
     1    19    18    1
     2    19    20    1
     3    19    17    1
     4    17     1    1
     5     1    22    1
     6    22    23    1
     7    23    24    1
     8    24    25   ar
     9    25    26   ar
    10    26    27   ar
    11    27    28    1
    12    27    29   ar
    13    29    30   ar
    14     1     2    1
    15     2     3    1
    16     3     4    1
    17     4     5    1
    18     5     8    1
    19     8     9   ar
    20     9    10   ar
    21    10    11    1
    22    10    12   ar
    23    12    13   ar
    24     5     6    1
    25     6     7    1
    26    30    24   ar
    27     7     2    1
    28    13     8   ar
    29    20    21    1
    30    11    14    1
    31    11    15    1
    32    13    16    1
