@<TRIPOS>MOLECULE
*****
 33 37 0 0 0
SMALL
GASTEIGER

@<TRIPOS>ATOM
      1 C         142.4088  143.3540  162.9525 C.3     1  UNL1        0.0545
      2 C         143.8705  143.6168  163.1628 C.3     1  UNL1        0.0162
      3 C         144.5226  142.3235  163.5530 C.3     1  UNL1        0.0095
      4 C         145.8289  141.6866  163.9241 C.3     1  UNL1        0.0005
      5 C         145.5776  140.2309  164.1842 C.3     1  UNL1        0.0005
      6 C         144.1158  139.9681  163.9739 C.3     1  UNL1        0.0087
      7 C         143.4638  141.2614  163.5838 C.3     1  UNL1        0.0704
      8 C         142.1574  141.8983  163.2127 C.3     1  UNL1        0.0243
      9 C         142.4050  140.1993  163.6146 C.2     1  UNL1        0.2250
     10 O         142.2373  139.2734  162.4465 O.2     1  UNL1       -0.2749
     11 N         141.5140  140.0631  164.8136 N.am    1  UNL1       -0.2750
     12 C         140.4552  139.0010  164.8444 C.3     1  UNL1        0.1000
     13 C         139.5643  138.8648  166.0434 C.3     1  UNL1        0.0670
     14 C         139.7321  139.7907  167.2116 C.ar    1  UNL1        0.0588
     15 N         138.8410  139.6544  168.4106 N.ar    1  UNL1       -0.2421
     16 C         139.0088  140.5803  169.5787 C.ar    1  UNL1        0.1736
     17 C         140.0676  141.6424  169.5479 C.ar    1  UNL1        0.3087
     18 C         140.9586  141.7786  168.3489 C.ar    1  UNL1        0.0755
     19 C         140.7908  140.8527  167.1808 C.ar    1  UNL1        0.0174
     20 C         141.6818  140.9889  165.9818 C.3     1  UNL1        0.1215
     21 N         140.2354  142.5683  170.7160 N.pl3   1  UNL1        0.0825
     22 O         140.7237  142.0362  172.0307 O.2     1  UNL1        0.0415
     23 O         139.9148  144.0264  170.5695 O.co2   1  UNL1       -0.5760
     24 N         141.3791  144.3688  162.5523 N.3     1  UNL1       -0.2975
     25 H         141.8058  145.2867  162.6782 H       1  UNL1        0.1232
     26 C         138.7932  144.1264  162.4886 C.3     1  UNL1        0.1591
     27 C         137.4671  144.1656  163.1886 C.3     1  UNL1        0.1729
     28 O         137.4009  144.4863  164.6524 O.3     1  UNL1       -0.3511
     29 C         138.6609  144.7679  165.4162 C.3     1  UNL1        0.1437
     30 C         139.9869  144.7287  164.7162 C.3     1  UNL1        0.0503
     31 C         140.0530  144.4080  163.2523 C.3     1  UNL1        0.0865
     32 C         138.4733  142.4403  160.5379 C.3     1  UNL1        0.1742
     33 O         138.8593  143.8057  161.0248 O.3     1  UNL1       -0.3496
@<TRIPOS>UNITY_ATOM_ATTR
21 1
charge 1
23 1
charge -1
@<TRIPOS>BOND
     1    32    33    1
     2    33    26    1
     3    26    27    1
     4    27    28    1
     5    28    29    1
     6    29    30    1
     7    30    31    1
     8    31    24    1
     9     1    24    1
    10     1     2    1
    11     3     2    1
    12     3     4    1
    13     4     5    1
    14     5     6    1
    15     6     7    1
    16     7     9    1
    17     9    10    2
    18     9    11   am
    19    11    12    1
    20    12    13    1
    21    13    14    1
    22    14    15   ar
    23    15    16   ar
    24    16    17   ar
    25    17    21    1
    26    21    22    2
    27    21    23    1
    28    17    18   ar
    29    18    19   ar
    30    19    20    1
    31     7     8    1
    32    31    26    1
    33     8     1    1
    34     7     3    1
    35    20    11    1
    36    19    14   ar
    37    24    25    1
@<TRIPOS>MOLECULE
*****
 33 37 0 0 0
SMALL
GASTEIGER

@<TRIPOS>ATOM
      1 C         139.4163  139.0185  166.2269 C.3     1  UNL1        0.0545
      2 C         138.3877  139.1012  167.3156 C.3     1  UNL1        0.0162
      3 C         138.9956  139.8372  168.4726 C.3     1  UNL1        0.0095
      4 C         138.7357  140.3432  169.8606 C.3     1  UNL1        0.0005
      5 C         139.9793  141.0281  170.3447 C.3     1  UNL1        0.0005
      6 C         141.0078  140.9454  169.2560 C.3     1  UNL1        0.0087
      7 C         140.3999  140.2094  168.0990 C.3     1  UNL1        0.0704
      8 C         140.6598  139.7034  166.7111 C.3     1  UNL1        0.0243
      9 C         141.8041  140.5816  167.7254 C.2     1  UNL1        0.2250
     10 O         142.9624  139.9557  168.4441 O.2     1  UNL1       -0.2749
     11 N         142.0501  141.5797  166.6330 N.am    1  UNL1       -0.2750
     12 C         143.4543  141.9519  166.2593 C.3     1  UNL1        0.1000
     13 C         143.7001  142.9500  165.1670 C.3     1  UNL1        0.0670
     14 C         142.5418  143.5759  164.4482 C.ar    1  UNL1        0.0588
     15 N         142.7878  144.5740  163.3558 N.ar    1  UNL1       -0.2421
     16 C         141.6295  145.1999  162.6370 C.ar    1  UNL1        0.1736
     17 C         140.2252  144.8277  163.0107 C.ar    1  UNL1        0.3087
     18 C         139.9793  143.8296  164.1031 C.ar    1  UNL1        0.0755
     19 C         141.1376  143.2037  164.8218 C.ar    1  UNL1        0.0174
     20 C         140.8917  142.2056  165.9142 C.3     1  UNL1        0.1215
     21 N         139.0669  145.4535  162.2920 N.pl3   1  UNL1        0.0825
     22 O         139.2947  146.6164  161.3723 O.2     1  UNL1        0.0415
     23 O         137.6808  144.9165  162.4930 O.co2   1  UNL1       -0.5760
     24 N         139.2334  138.3655  164.8888 N.3     1  UNL1       -0.2975
     25 H         140.1317  137.9530  164.6373 H       1  UNL1        0.1232
     26 C         139.1786  138.7703  162.3231 C.3     1  UNL1        0.1591
     27 C         138.7314  139.5851  161.1458 C.3     1  UNL1        0.1729
     28 O         137.8919  140.8100  161.3569 O.3     1  UNL1       -0.3511
     29 C         137.4994  141.2202  162.7454 C.3     1  UNL1        0.1437
     30 C         137.9466  140.4054  163.9227 C.3     1  UNL1        0.0503
     31 C         138.7862  139.1803  163.7115 C.3     1  UNL1        0.0865
     32 C         141.5117  137.6318  162.2208 C.3     1  UNL1        0.1742
     33 O         140.0181  137.5453  162.1120 O.3     1  UNL1       -0.3496
@<TRIPOS>UNITY_ATOM_ATTR
21 1
charge 1
23 1
charge -1
@<TRIPOS>BOND
     1    32    33    1
     2    33    26    1
     3    26    27    1
     4    27    28    1
     5    28    29    1
     6    29    30    1
     7    30    31    1
     8    31    24    1
     9     1    24    1
    10     1     2    1
    11     3     2    1
    12     3     4    1
    13     4     5    1
    14     5     6    1
    15     6     7    1
    16     7     9    1
    17     9    10    2
    18     9    11   am
    19    11    12    1
    20    12    13    1
    21    13    14    1
    22    14    15   ar
    23    15    16   ar
    24    16    17   ar
    25    17    21    1
    26    21    22    2
    27    21    23    1
    28    17    18   ar
    29    18    19   ar
    30    19    20    1
    31     7     8    1
    32    31    26    1
    33     8     1    1
    34     7     3    1
    35    20    11    1
    36    19    14   ar
    37    24    25    1
@<TRIPOS>MOLECULE
*****
 33 37 0 0 0
SMALL
GASTEIGER

@<TRIPOS>ATOM
      1 C         140.5821  137.6298  164.0978 C.3     1  UNL1        0.0545
      2 C         139.1543  137.4529  164.5220 C.3     1  UNL1        0.0162
      3 C         138.9290  138.2846  165.7498 C.3     1  UNL1        0.0095
      4 C         137.9074  138.6893  166.7708 C.3     1  UNL1        0.0005
      5 C         138.5646  139.6305  167.7364 C.3     1  UNL1        0.0005
      6 C         139.9924  139.8074  167.3122 C.3     1  UNL1        0.0087
      7 C         140.2177  138.9757  166.0844 C.3     1  UNL1        0.0704
      8 C         141.2393  138.5710  165.0634 C.3     1  UNL1        0.0243
      9 C         141.5063  139.6667  166.4190 C.2     1  UNL1        0.2250
     10 O         142.4189  139.0890  167.4598 O.2     1  UNL1       -0.2749
     11 N         141.8823  140.9355  165.7126 N.am    1  UNL1       -0.2750
     12 C         143.1709  141.6265  166.0472 C.3     1  UNL1        0.1000
     13 C         143.5469  142.8953  165.3409 C.3     1  UNL1        0.0670
     14 C         142.6343  143.4730  164.3000 C.ar    1  UNL1        0.0588
     15 N         143.0103  144.7418  163.5937 N.ar    1  UNL1       -0.2421
     16 C         142.0977  145.3195  162.5528 C.ar    1  UNL1        0.1736
     17 C         140.8090  144.6284  162.2183 C.ar    1  UNL1        0.3087
     18 C         140.4330  143.3597  162.9246 C.ar    1  UNL1        0.0755
     19 C         141.3457  142.7820  163.9655 C.ar    1  UNL1        0.0174
     20 C         140.9697  141.5132  164.6718 C.3     1  UNL1        0.1215
     21 N         139.8964  145.2061  161.1775 N.pl3   1  UNL1        0.0825
     22 O         139.2405  146.5350  161.4093 O.2     1  UNL1        0.0415
     23 O         139.6396  144.4548  159.9047 O.co2   1  UNL1       -0.5760
     24 N         141.2377  136.9798  162.9155 N.3     1  UNL1       -0.2975
     25 H         141.9473  136.3463  163.2837 H       1  UNL1        0.1232
     26 C         141.1117  138.3812  160.7315 C.3     1  UNL1        0.1591
     27 C         141.7833  139.2246  159.6886 C.3     1  UNL1        0.1729
     28 O         143.2526  139.5101  159.7870 O.3     1  UNL1       -0.3511
     29 C         144.0503  138.9521  160.9282 C.3     1  UNL1        0.1437
     30 C         143.3787  138.1086  161.9711 C.3     1  UNL1        0.0503
     31 C         141.9093  137.8232  161.8727 C.3     1  UNL1        0.0865
     32 C         138.6502  139.0643  161.2055 C.3     1  UNL1        0.1742
     33 O         139.6424  138.0958  160.6332 O.3     1  UNL1       -0.3496
@<TRIPOS>UNITY_ATOM_ATTR
21 1
charge 1
23 1
charge -1
@<TRIPOS>BOND
     1    32    33    1
     2    33    26    1
     3    26    27    1
     4    27    28    1
     5    28    29    1
     6    29    30    1
     7    30    31    1
     8    31    24    1
     9     1    24    1
    10     1     2    1
    11     3     2    1
    12     3     4    1
    13     4     5    1
    14     5     6    1
    15     6     7    1
    16     7     9    1
    17     9    10    2
    18     9    11   am
    19    11    12    1
    20    12    13    1
    21    13    14    1
    22    14    15   ar
    23    15    16   ar
    24    16    17   ar
    25    17    21    1
    26    21    22    2
    27    21    23    1
    28    17    18   ar
    29    18    19   ar
    30    19    20    1
    31     7     8    1
    32    31    26    1
    33     8     1    1
    34     7     3    1
    35    20    11    1
    36    19    14   ar
    37    24    25    1
@<TRIPOS>MOLECULE
*****
 33 37 0 0 0
SMALL
GASTEIGER

@<TRIPOS>ATOM
      1 C         141.1598  142.0820  162.0121 C.3     1  UNL1        0.0545
      2 C         140.9433  143.5616  161.8936 C.3     1  UNL1        0.0162
      3 C         139.6300  143.8911  162.5389 C.3     1  UNL1        0.0095
      4 C         138.6845  145.0091  162.8644 C.3     1  UNL1        0.0005
      5 C         137.5048  144.4242  163.5830 C.3     1  UNL1        0.0005
      6 C         137.7212  142.9446  163.7015 C.3     1  UNL1        0.0087
      7 C         139.0346  142.6151  163.0562 C.3     1  UNL1        0.0704
      8 C         139.9801  141.4971  162.7307 C.3     1  UNL1        0.0243
      9 C         138.4393  141.3392  163.5736 C.2     1  UNL1        0.2250
     10 O         137.5382  140.5221  162.6959 O.2     1  UNL1       -0.2749
     11 N         138.7452  140.8804  164.9686 N.am    1  UNL1       -0.2750
     12 C         138.1499  139.6045  165.4859 C.3     1  UNL1        0.1000
     13 C         138.4557  139.1457  166.8809 C.3     1  UNL1        0.0670
     14 C         139.3569  139.9629  167.7585 C.ar    1  UNL1        0.0588
     15 N         139.6627  139.5041  169.1535 N.ar    1  UNL1       -0.2421
     16 C         140.5638  140.3212  170.0312 C.ar    1  UNL1        0.1736
     17 C         141.1591  141.5972  169.5138 C.ar    1  UNL1        0.3087
     18 C         140.8533  142.0559  168.1188 C.ar    1  UNL1        0.0755
     19 C         139.9521  141.2388  167.2412 C.ar    1  UNL1        0.0174
     20 C         139.6463  141.6975  165.8462 C.3     1  UNL1        0.1215
     21 N         142.0602  142.4143  170.3914 N.pl3   1  UNL1        0.0825
     22 O         143.2029  143.1772  169.7896 O.2     1  UNL1        0.0415
     23 O         141.8186  142.4686  171.8709 O.co2   1  UNL1       -0.5760
     24 N         142.3474  141.3209  161.5017 N.3     1  UNL1       -0.2975
     25 H         141.9878  140.4712  161.0667 H       1  UNL1        0.1232
     26 C         144.5909  141.8093  162.7175 C.3     1  UNL1        0.1591
     27 C         145.6739  141.3858  163.6649 C.3     1  UNL1        0.1729
     28 O         145.5967  140.0506  164.3439 O.3     1  UNL1       -0.3511
     29 C         144.4362  139.1387  164.0755 C.3     1  UNL1        0.1437
     30 C         143.3531  139.5621  163.1281 C.3     1  UNL1        0.0503
     31 C         143.4305  140.8975  162.4491 C.3     1  UNL1        0.0865
     32 C         144.2108  144.3791  162.7574 C.3     1  UNL1        0.1742
     33 O         144.6681  143.1445  162.0385 O.3     1  UNL1       -0.3496
@<TRIPOS>UNITY_ATOM_ATTR
21 1
charge 1
23 1
charge -1
@<TRIPOS>BOND
     1    32    33    1
     2    33    26    1
     3    26    27    1
     4    27    28    1
     5    28    29    1
     6    29    30    1
     7    30    31    1
     8    31    24    1
     9     1    24    1
    10     1     2    1
    11     3     2    1
    12     3     4    1
    13     4     5    1
    14     5     6    1
    15     6     7    1
    16     7     9    1
    17     9    10    2
    18     9    11   am
    19    11    12    1
    20    12    13    1
    21    13    14    1
    22    14    15   ar
    23    15    16   ar
    24    16    17   ar
    25    17    21    1
    26    21    22    2
    27    21    23    1
    28    17    18   ar
    29    18    19   ar
    30    19    20    1
    31     7     8    1
    32    31    26    1
    33     8     1    1
    34     7     3    1
    35    20    11    1
    36    19    14   ar
    37    24    25    1
@<TRIPOS>MOLECULE
*****
 33 37 0 0 0
SMALL
GASTEIGER

@<TRIPOS>ATOM
      1 C         140.3088  141.7623  161.3839 C.3     1  UNL1        0.0545
      2 C         138.8865  141.3175  161.2130 C.3     1  UNL1        0.0162
      3 C         138.7726  139.9170  161.7380 C.3     1  UNL1        0.0095
      4 C         137.8232  138.7765  161.9568 C.3     1  UNL1        0.0005
      5 C         138.5883  137.6509  162.5874 C.3     1  UNL1        0.0005
      6 C         140.0105  138.0958  162.7584 C.3     1  UNL1        0.0087
      7 C         140.1245  139.4963  162.2334 C.3     1  UNL1        0.0704
      8 C         141.0739  140.6368  162.0146 C.3     1  UNL1        0.0243
      9 C         141.4763  139.0756  162.7289 C.2     1  UNL1        0.2250
     10 O         142.5162  138.5998  161.7582 O.2     1  UNL1       -0.2749
     11 N         141.7884  139.1307  164.1951 N.am    1  UNL1       -0.2750
     12 C         143.1402  138.7100  164.6905 C.3     1  UNL1        0.1000
     13 C         143.4522  138.7652  166.1566 C.3     1  UNL1        0.0670
     14 C         142.4123  139.2410  167.1273 C.ar    1  UNL1        0.0588
     15 N         142.7243  139.2961  168.5935 N.ar    1  UNL1       -0.2421
     16 C         141.6845  139.7719  169.5642 C.ar    1  UNL1        0.1736
     17 C         140.3325  140.1926  169.0687 C.ar    1  UNL1        0.3087
     18 C         140.0206  140.1375  167.6026 C.ar    1  UNL1        0.0755
     19 C         141.0605  139.6617  166.6319 C.ar    1  UNL1        0.0174
     20 C         140.7485  139.6065  165.1658 C.3     1  UNL1        0.1215
     21 N         139.2927  140.6684  170.0394 N.pl3   1  UNL1        0.0825
     22 O         139.3213  142.0838  170.5353 O.2     1  UNL1        0.0415
     23 O         138.2241  139.7288  170.5142 O.co2   1  UNL1       -0.5760
     24 N         140.8679  143.0983  160.9929 N.3     1  UNL1       -0.2975
     25 H         141.3501  142.9668  160.1038 H       1  UNL1        0.1232
     26 C         141.3111  144.7788  162.9240 C.3     1  UNL1        0.1591
     27 C         142.2690  145.4869  163.8356 C.3     1  UNL1        0.1729
     28 O         143.7415  145.2225  163.7278 O.3     1  UNL1       -0.3511
     29 C         144.2562  144.2500  162.7083 C.3     1  UNL1        0.1437
     30 C         143.2984  143.5419  161.7966 C.3     1  UNL1        0.0503
     31 C         141.8257  143.8063  161.9045 C.3     1  UNL1        0.0865
     32 C         139.1138  144.7403  164.3098 C.3     1  UNL1        0.1742
     33 O         139.8385  145.0432  163.0318 O.3     1  UNL1       -0.3496
@<TRIPOS>UNITY_ATOM_ATTR
21 1
charge 1
23 1
charge -1
@<TRIPOS>BOND
     1    32    33    1
     2    33    26    1
     3    26    27    1
     4    27    28    1
     5    28    29    1
     6    29    30    1
     7    30    31    1
     8    31    24    1
     9     1    24    1
    10     1     2    1
    11     3     2    1
    12     3     4    1
    13     4     5    1
    14     5     6    1
    15     6     7    1
    16     7     9    1
    17     9    10    2
    18     9    11   am
    19    11    12    1
    20    12    13    1
    21    13    14    1
    22    14    15   ar
    23    15    16   ar
    24    16    17   ar
    25    17    21    1
    26    21    22    2
    27    21    23    1
    28    17    18   ar
    29    18    19   ar
    30    19    20    1
    31     7     8    1
    32    31    26    1
    33     8     1    1
    34     7     3    1
    35    20    11    1
    36    19    14   ar
    37    24    25    1
@<TRIPOS>MOLECULE
*****
 33 37 0 0 0
SMALL
GASTEIGER

@<TRIPOS>ATOM
      1 C         139.5213  142.1889  163.3906 C.3     1  UNL1        0.0545
      2 C         139.4312  143.6862  163.3978 C.3     1  UNL1        0.0162
      3 C         140.8239  144.2338  163.5010 C.3     1  UNL1        0.0095
      4 C         141.6289  145.4976  163.5693 C.3     1  UNL1        0.0005
      5 C         143.0772  145.1199  163.6680 C.3     1  UNL1        0.0005
      6 C         143.1673  143.6226  163.6608 C.3     1  UNL1        0.0087
      7 C         141.7747  143.0750  163.5576 C.3     1  UNL1        0.0704
      8 C         140.9696  141.8112  163.4894 C.3     1  UNL1        0.0243
      9 C         142.7254  141.9162  163.6142 C.2     1  UNL1        0.2250
     10 O         143.5835  141.5914  162.4275 O.2     1  UNL1       -0.2749
     11 N         142.8181  141.0820  164.8575 N.am    1  UNL1       -0.2750
     12 C         143.7688  139.9232  164.9140 C.3     1  UNL1        0.1000
     13 C         143.8614  139.0891  166.1573 C.3     1  UNL1        0.0670
     14 C         143.0033  139.4139  167.3439 C.ar    1  UNL1        0.0588
     15 N         143.0959  138.5797  168.5872 N.ar    1  UNL1       -0.2421
     16 C         142.2378  138.9044  169.7739 C.ar    1  UNL1        0.1736
     17 C         141.2871  140.0633  169.7173 C.ar    1  UNL1        0.3087
     18 C         141.1944  140.8974  168.4740 C.ar    1  UNL1        0.0755
     19 C         142.0526  140.5727  167.2874 C.ar    1  UNL1        0.0174
     20 C         141.9599  141.4067  166.0441 C.3     1  UNL1        0.1215
     21 N         140.4289  140.3880  170.9040 N.pl3   1  UNL1        0.0825
     22 O         139.1522  139.6353  171.1347 O.2     1  UNL1        0.0415
     23 O         140.8477  141.4655  171.8599 O.co2   1  UNL1       -0.5760
     24 N         138.3659  141.2365  163.3005 N.3     1  UNL1       -0.2975
     25 H         137.5500  141.7280  163.6653 H       1  UNL1        0.1232
     26 C         138.7398  138.6663  163.2363 C.3     1  UNL1        0.1591
     27 C         138.8007  137.3444  163.9427 C.3     1  UNL1        0.1729
     28 O         138.5485  137.2708  165.4194 O.3     1  UNL1       -0.3511
     29 C         138.2354  138.5192  166.1900 C.3     1  UNL1        0.1437
     30 C         138.1745  139.8411  165.4837 C.3     1  UNL1        0.0503
     31 C         138.4268  139.9146  164.0068 C.3     1  UNL1        0.0865
     32 C         140.3436  138.3897  161.2111 C.3     1  UNL1        0.1742
     33 O         138.9920  138.7399  161.7596 O.3     1  UNL1       -0.3496
@<TRIPOS>UNITY_ATOM_ATTR
21 1
charge 1
23 1
charge -1
@<TRIPOS>BOND
     1    32    33    1
     2    33    26    1
     3    26    27    1
     4    27    28    1
     5    28    29    1
     6    29    30    1
     7    30    31    1
     8    31    24    1
     9     1    24    1
    10     1     2    1
    11     3     2    1
    12     3     4    1
    13     4     5    1
    14     5     6    1
    15     6     7    1
    16     7     9    1
    17     9    10    2
    18     9    11   am
    19    11    12    1
    20    12    13    1
    21    13    14    1
    22    14    15   ar
    23    15    16   ar
    24    16    17   ar
    25    17    21    1
    26    21    22    2
    27    21    23    1
    28    17    18   ar
    29    18    19   ar
    30    19    20    1
    31     7     8    1
    32    31    26    1
    33     8     1    1
    34     7     3    1
    35    20    11    1
    36    19    14   ar
    37    24    25    1
@<TRIPOS>MOLECULE
*****
 33 37 0 0 0
SMALL
GASTEIGER

@<TRIPOS>ATOM
      1 C         138.6345  140.8921  162.4710 C.3     1  UNL1        0.0545
      2 C         138.1022  139.5048  162.6759 C.3     1  UNL1        0.0162
      3 C         139.2261  138.6461  163.1753 C.3     1  UNL1        0.0095
      4 C         139.5917  137.2580  163.6105 C.3     1  UNL1        0.0005
      5 C         141.0447  137.2567  163.9834 C.3     1  UNL1        0.0005
      6 C         141.5770  138.6440  163.7785 C.3     1  UNL1        0.0087
      7 C         140.4531  139.5027  163.2791 C.3     1  UNL1        0.0704
      8 C         140.0875  140.8908  162.8438 C.3     1  UNL1        0.0243
      9 C         141.6801  140.3593  163.3829 C.2     1  UNL1        0.2250
     10 O         142.4922  140.6578  162.1577 O.2     1  UNL1       -0.2749
     11 N         142.0949  140.9174  164.7120 N.am    1  UNL1       -0.2750
     12 C         143.3218  141.7740  164.8158 C.3     1  UNL1        0.1000
     13 C         143.7366  142.3321  166.1449 C.3     1  UNL1        0.0670
     14 C         142.9244  142.0337  167.3702 C.ar    1  UNL1        0.0588
     15 N         143.3392  142.5918  168.6993 N.ar    1  UNL1       -0.2421
     16 C         142.5270  142.2933  169.9245 C.ar    1  UNL1        0.1736
     17 C         141.3000  141.4367  169.8207 C.ar    1  UNL1        0.3087
     18 C         140.8852  140.8786  168.4916 C.ar    1  UNL1        0.0755
     19 C         141.6974  141.1771  167.2663 C.ar    1  UNL1        0.0174
     20 C         141.2827  140.6190  165.9373 C.3     1  UNL1        0.1215
     21 N         140.4878  141.1382  171.0459 N.pl3   1  UNL1        0.0825
     22 O         139.7381  139.8433  171.1517 O.2     1  UNL1        0.0415
     23 O         140.4253  142.1347  172.1654 O.co2   1  UNL1       -0.5760
     24 N         137.8515  142.0734  161.9796 N.3     1  UNL1       -0.2975
     25 H         137.3238  141.7588  161.1654 H       1  UNL1        0.1232
     26 C         138.6009  144.5045  162.5068 C.3     1  UNL1        0.1591
     27 C         139.3135  145.7609  162.1020 C.3     1  UNL1        0.1729
     28 O         139.9892  145.8425  160.7654 O.3     1  UNL1       -0.3511
     29 C         139.9524  144.6676  159.8334 C.3     1  UNL1        0.1437
     30 C         139.2398  143.4113  160.2381 C.3     1  UNL1        0.0503
     31 C         138.5640  143.3298  161.5749 C.3     1  UNL1        0.0865
     32 C         138.6852  144.7663  165.0903 C.3     1  UNL1        0.1742
     33 O         137.9252  144.4230  163.8434 O.3     1  UNL1       -0.3496
@<TRIPOS>UNITY_ATOM_ATTR
21 1
charge 1
23 1
charge -1
@<TRIPOS>BOND
     1    32    33    1
     2    33    26    1
     3    26    27    1
     4    27    28    1
     5    28    29    1
     6    29    30    1
     7    30    31    1
     8    31    24    1
     9     1    24    1
    10     1     2    1
    11     3     2    1
    12     3     4    1
    13     4     5    1
    14     5     6    1
    15     6     7    1
    16     7     9    1
    17     9    10    2
    18     9    11   am
    19    11    12    1
    20    12    13    1
    21    13    14    1
    22    14    15   ar
    23    15    16   ar
    24    16    17   ar
    25    17    21    1
    26    21    22    2
    27    21    23    1
    28    17    18   ar
    29    18    19   ar
    30    19    20    1
    31     7     8    1
    32    31    26    1
    33     8     1    1
    34     7     3    1
    35    20    11    1
    36    19    14   ar
    37    24    25    1
@<TRIPOS>MOLECULE
*****
 33 37 0 0 0
SMALL
GASTEIGER

@<TRIPOS>ATOM
      1 C         139.7693  143.0972  163.2106 C.3     1  UNL1        0.0545
      2 C         140.1373  144.5406  163.3869 C.3     1  UNL1        0.0162
      3 C         141.6106  144.6135  163.6591 C.3     1  UNL1        0.0095
      4 C         142.7486  145.5505  163.9363 C.3     1  UNL1        0.0005
      5 C         143.9945  144.7313  164.0995 C.3     1  UNL1        0.0005
      6 C         143.6265  143.2878  163.9232 C.3     1  UNL1        0.0087
      7 C         142.1532  143.2150  163.6510 C.3     1  UNL1        0.0704
      8 C         141.0152  142.2780  163.3738 C.3     1  UNL1        0.0243
      9 C         142.6957  141.8166  163.6429 C.2     1  UNL1        0.2250
     10 O         143.1613  141.2002  162.3571 O.2     1  UNL1       -0.2749
     11 N         142.7727  141.0345  164.9206 N.am    1  UNL1       -0.2750
     12 C         143.3152  139.6361  164.9125 C.3     1  UNL1        0.1000
     13 C         143.3921  138.8541  166.1902 C.3     1  UNL1        0.0670
     14 C         142.9265  139.4705  167.4760 C.ar    1  UNL1        0.0588
     15 N         143.0034  138.6885  168.7537 N.ar    1  UNL1       -0.2421
     16 C         142.5379  139.3049  170.0395 C.ar    1  UNL1        0.1736
     17 C         141.9953  140.7033  170.0476 C.ar    1  UNL1        0.3087
     18 C         141.9184  141.4853  168.7699 C.ar    1  UNL1        0.0755
     19 C         142.3840  140.8689  167.4841 C.ar    1  UNL1        0.0174
     20 C         142.3071  141.6509  166.2064 C.3     1  UNL1        0.1215
     21 N         141.5297  141.3197  171.3334 N.pl3   1  UNL1        0.0825
     22 O         142.1494  142.5957  171.8210 O.2     1  UNL1        0.0415
     23 O         140.4444  140.6601  172.1316 O.co2   1  UNL1       -0.5760
     24 N         138.3964  142.5663  162.9218 N.3     1  UNL1       -0.2975
     25 H         137.9109  142.5031  163.8166 H       1  UNL1        0.1232
     26 C         138.2099  139.9787  163.0616 C.3     1  UNL1        0.1591
     27 C         138.0467  138.6496  162.3857 C.3     1  UNL1        0.1729
     28 O         137.9069  138.5790  160.8939 O.3     1  UNL1       -0.3511
     29 C         137.9302  139.8376  160.0780 C.3     1  UNL1        0.1437
     30 C         138.0934  141.1666  160.7540 C.3     1  UNL1        0.0503
     31 C         138.2333  141.2372  162.2458 C.3     1  UNL1        0.0865
     32 C         139.4879  139.3482  165.2340 C.3     1  UNL1        0.1742
     33 O         138.3498  140.0493  164.5534 O.3     1  UNL1       -0.3496
@<TRIPOS>UNITY_ATOM_ATTR
21 1
charge 1
23 1
charge -1
@<TRIPOS>BOND
     1    32    33    1
     2    33    26    1
     3    26    27    1
     4    27    28    1
     5    28    29    1
     6    29    30    1
     7    30    31    1
     8    31    24    1
     9     1    24    1
    10     1     2    1
    11     3     2    1
    12     3     4    1
    13     4     5    1
    14     5     6    1
    15     6     7    1
    16     7     9    1
    17     9    10    2
    18     9    11   am
    19    11    12    1
    20    12    13    1
    21    13    14    1
    22    14    15   ar
    23    15    16   ar
    24    16    17   ar
    25    17    21    1
    26    21    22    2
    27    21    23    1
    28    17    18   ar
    29    18    19   ar
    30    19    20    1
    31     7     8    1
    32    31    26    1
    33     8     1    1
    34     7     3    1
    35    20    11    1
    36    19    14   ar
    37    24    25    1
@<TRIPOS>MOLECULE
*****
 33 37 0 0 0
SMALL
GASTEIGER

@<TRIPOS>ATOM
      1 C         139.6003  140.3422  162.5268 C.3     1  UNL1        0.0545
      2 C         138.2312  140.9548  162.5410 C.3     1  UNL1        0.0162
      3 C         138.3740  142.4002  162.9154 C.3     1  UNL1        0.0095
      4 C         137.6161  143.6722  163.1556 C.3     1  UNL1        0.0005
      5 C         138.6051  144.7391  163.5213 C.3     1  UNL1        0.0005
      6 C         139.9742  144.1265  163.5072 C.3     1  UNL1        0.0087
      7 C         139.8314  142.6811  163.1327 C.3     1  UNL1        0.0704
      8 C         140.5893  141.4091  162.8925 C.3     1  UNL1        0.0243
      9 C         141.2888  142.9618  163.3500 C.2     1  UNL1        0.2250
     10 O         142.1503  143.3878  162.1983 O.2     1  UNL1       -0.2749
     11 N         141.8846  142.8165  164.7189 N.am    1  UNL1       -0.2750
     12 C         143.3420  143.0973  164.9361 C.3     1  UNL1        0.1000
     13 C         143.9378  142.9520  166.3050 C.3     1  UNL1        0.0670
     14 C         143.0762  142.5260  167.4567 C.ar    1  UNL1        0.0588
     15 N         143.6721  142.3808  168.8256 N.ar    1  UNL1       -0.2421
     16 C         142.8106  141.9548  169.9772 C.ar    1  UNL1        0.1736
     17 C         141.3531  141.6740  169.7599 C.ar    1  UNL1        0.3087
     18 C         140.7573  141.8193  168.3910 C.ar    1  UNL1        0.0755
     19 C         141.6189  142.2453  167.2394 C.ar    1  UNL1        0.0174
     20 C         141.0231  142.3905  165.8705 C.3     1  UNL1        0.1215
     21 N         140.4916  141.2480  170.9115 N.pl3   1  UNL1        0.0825
     22 O         140.4060  142.1033  172.1408 O.2     1  UNL1        0.0415
     23 O         139.7156  139.9666  170.8339 O.co2   1  UNL1       -0.5760
     24 N         139.9237  138.9135  162.2037 N.3     1  UNL1       -0.2975
     25 H         140.0040  138.4213  163.0935 H       1  UNL1        0.1232
     26 C         142.4052  138.1484  162.1199 C.3     1  UNL1        0.1591
     27 C         143.6369  137.8184  161.3299 C.3     1  UNL1        0.1729
     28 O         143.6188  137.9238  159.8337 O.3     1  UNL1       -0.3511
     29 C         142.3691  138.3590  159.1275 C.3     1  UNL1        0.1437
     30 C         141.1374  138.6889  159.9175 C.3     1  UNL1        0.0503
     31 C         141.1554  138.5836  161.4137 C.3     1  UNL1        0.0865
     32 C         142.9993  139.1567  164.4394 C.3     1  UNL1        0.1742
     33 O         142.4232  138.0430  163.6160 O.3     1  UNL1       -0.3496
@<TRIPOS>UNITY_ATOM_ATTR
21 1
charge 1
23 1
charge -1
@<TRIPOS>BOND
     1    32    33    1
     2    33    26    1
     3    26    27    1
     4    27    28    1
     5    28    29    1
     6    29    30    1
     7    30    31    1
     8    31    24    1
     9     1    24    1
    10     1     2    1
    11     3     2    1
    12     3     4    1
    13     4     5    1
    14     5     6    1
    15     6     7    1
    16     7     9    1
    17     9    10    2
    18     9    11   am
    19    11    12    1
    20    12    13    1
    21    13    14    1
    22    14    15   ar
    23    15    16   ar
    24    16    17   ar
    25    17    21    1
    26    21    22    2
    27    21    23    1
    28    17    18   ar
    29    18    19   ar
    30    19    20    1
    31     7     8    1
    32    31    26    1
    33     8     1    1
    34     7     3    1
    35    20    11    1
    36    19    14   ar
    37    24    25    1
