@<TRIPOS>MOLECULE
*****
 38 43 0 0 0
SMALL
GASTEIGER

@<TRIPOS>ATOM
      1 C         137.8669  140.1188  162.1222 C.3     1  UNL1        0.0700
      2 C         137.7016  140.4091  163.5845 C.3     1  UNL1        0.0193
      3 C         137.6842  141.8282  164.0701 C.3     1  UNL1        0.0286
      4 C         137.8320  142.9570  163.0934 C.3     1  UNL1        0.0932
      5 C         137.9973  142.6667  161.6310 C.3     1  UNL1        0.0286
      6 C         138.0148  141.2475  161.1454 C.3     1  UNL1        0.0193
      7 O         137.8477  142.1958  162.7799 O.3     1  UNL1       -0.3572
      8 C         137.8634  140.9126  162.3408 C.3     1  UNL1        0.1562
      9 N         137.8844  138.6997  161.6365 N.3     1  UNL1       -0.2926
     10 H         137.4762  138.1299  162.3776 H       1  UNL1        0.1236
     11 C         139.1836  138.0524  161.2583 C.3     1  UNL1        0.1152
     12 O         145.9335  141.6637  162.7233 O.2     1  UNL1       -0.2707
     13 C         144.8951  140.6486  163.0990 C.2     1  UNL1        0.2718
     14 C         145.0681  139.8222  164.3387 C.3     1  UNL1        0.2898
     15 O         144.0297  138.8071  164.7145 O.3     1  UNL1       -0.4628
     16 C         142.8182  138.6184  163.8504 C.ar    1  UNL1        0.1708
     17 C         141.7797  137.6033  164.2261 C.ar    1  UNL1        0.0411
     18 C         140.5682  137.4146  163.3621 C.ar    1  UNL1        0.0193
     19 C         140.3951  138.2410  162.1223 C.ar    1  UNL1        0.0765
     20 N         141.4336  139.2562  161.7466 N.ar    1  UNL1       -0.2304
     21 C         142.6451  139.4448  162.6107 C.ar    1  UNL1        0.1682
     22 N         143.6836  140.4599  162.2350 N.am    1  UNL1       -0.2639
     23 H         143.5700  141.0023  161.4213 H       1  UNL1        0.1565
     24 C         137.8146  144.3761  163.5790 C.3     1  UNL1        0.0320
     25 C         138.9242  144.8841  164.4511 C.3     1  UNL1        0.0327
     26 C         140.3322  144.4220  164.2188 C.ar    1  UNL1        0.0261
     27 C         141.0847  144.8888  163.0081 C.ar    1  UNL1        0.1566
     28 F         140.4291  145.8178  162.0297 F       1  UNL1       -0.2028
     29 C         142.4927  144.4267  162.7758 C.ar    1  UNL1        0.1281
     30 N         143.1482  143.4977  163.7542 N.ar    1  UNL1       -0.2400
     31 C         142.3958  143.0309  164.9649 C.ar    1  UNL1        0.0990
     32 C         143.0513  142.1019  165.9433 C.ar    1  UNL1        0.0254
     33 C         142.2988  141.6350  167.1540 C.ar    1  UNL1        0.0591
     34 C         140.8909  142.0972  167.3863 C.ar    1  UNL1        0.2217
     35 O         140.1384  141.6303  168.5970 O.3     1  UNL1       -0.4919
     36 N         140.2353  143.0261  166.4079 N.ar    1  UNL1       -0.2105
     37 C         140.9877  143.4930  165.1972 C.ar    1  UNL1        0.1002
     38 H         140.5479  141.0500  169.2082 H       1  UNL1        0.2937
@<TRIPOS>BOND
     1    12    13    2
     2    13    14    1
     3    14    15    1
     4    15    16    1
     5    16    17   ar
     6    17    18   ar
     7    18    19   ar
     8    19    11    1
     9    11     9    1
    10     9     1    1
    11     1     2    1
    12     2     3    1
    13     3     4    1
    14     4    24    1
    15    24    25    1
    16    25    26    1
    17    26    27   ar
    18    27    28    1
    19    27    29   ar
    20    29    30   ar
    21    30    31   ar
    22    31    32   ar
    23    32    33   ar
    24    33    34   ar
    25    34    35    1
    26    34    36   ar
    27    36    37   ar
    28     4     5    1
    29     5     6    1
    30     4     7    1
    31     7     8    1
    32    19    20   ar
    33    20    21   ar
    34    21    22    1
    35    22    13   am
    36    21    16   ar
    37     6     1    1
    38     8     1    1
    39    37    26   ar
    40    37    31   ar
    41     9    10    1
    42    35    38    1
    43    22    23    1
@<TRIPOS>MOLECULE
*****
 38 43 0 0 0
SMALL
GASTEIGER

@<TRIPOS>ATOM
      1 C         139.5379  137.9856  162.4851 C.3     1  UNL1        0.0700
      2 C         139.2197  137.7009  163.9230 C.3     1  UNL1        0.0193
      3 C         140.3031  137.7676  164.9583 C.3     1  UNL1        0.0286
      4 C         141.7047  138.1189  164.5556 C.3     1  UNL1        0.0932
      5 C         142.0229  138.4036  163.1176 C.3     1  UNL1        0.0286
      6 C         140.9394  138.3369  162.0823 C.3     1  UNL1        0.0193
      7 O         141.1446  138.0947  163.9526 O.3     1  UNL1       -0.3572
      8 C         140.1649  138.0345  163.0165 C.3     1  UNL1        0.1562
      9 N         138.4545  137.9190  161.4498 N.3     1  UNL1       -0.2926
     10 H         138.9160  137.8013  160.5478 H       1  UNL1        0.1236
     11 C         137.4911  139.0587  161.2979 C.3     1  UNL1        0.1152
     12 O         141.6092  145.4744  159.6761 O.2     1  UNL1       -0.2707
     13 C         140.6623  144.7300  160.5702 C.2     1  UNL1        0.2718
     14 C         140.1413  145.3798  161.8177 C.3     1  UNL1        0.2898
     15 O         139.1944  144.6354  162.7117 O.3     1  UNL1       -0.4628
     16 C         138.7686  143.2412  162.3583 C.ar    1  UNL1        0.1708
     17 C         137.8217  142.4968  163.2523 C.ar    1  UNL1        0.0411
     18 C         137.3959  141.1027  162.8989 C.ar    1  UNL1        0.0193
     19 C         137.9170  140.4528  161.6513 C.ar    1  UNL1        0.0765
     20 N         138.8638  141.1972  160.7573 N.ar    1  UNL1       -0.2304
     21 C         139.2897  142.5915  161.1108 C.ar    1  UNL1        0.1682
     22 N         140.2365  143.3359  160.2167 N.am    1  UNL1       -0.2639
     23 H         140.5785  142.9094  159.3979 H       1  UNL1        0.1565
     24 C         142.7881  138.1855  165.5908 C.3     1  UNL1        0.0320
     25 C         142.8966  139.3836  166.4869 C.3     1  UNL1        0.0327
     26 C         142.2430  140.6754  166.0944 C.ar    1  UNL1        0.0261
     27 C         140.8907  141.0277  166.6398 C.ar    1  UNL1        0.1566
     28 F         140.1922  140.0883  167.5776 F       1  UNL1       -0.2028
     29 C         140.2371  142.3195  166.2473 C.ar    1  UNL1        0.1281
     30 N         140.9356  143.2589  165.3094 N.ar    1  UNL1       -0.2400
     31 C         142.2877  142.9066  164.7641 C.ar    1  UNL1        0.0990
     32 C         142.9862  143.8460  163.8262 C.ar    1  UNL1        0.0254
     33 C         144.3384  143.4936  163.2808 C.ar    1  UNL1        0.0591
     34 C         144.9921  142.2019  163.6733 C.ar    1  UNL1        0.2217
     35 O         146.3443  141.8496  163.1279 O.3     1  UNL1       -0.4919
     36 N         144.2936  141.2625  164.6111 N.ar    1  UNL1       -0.2105
     37 C         142.9415  141.6148  165.1565 C.ar    1  UNL1        0.1002
     38 H         146.7806  142.4364  162.5421 H       1  UNL1        0.2937
@<TRIPOS>BOND
     1    12    13    2
     2    13    14    1
     3    14    15    1
     4    15    16    1
     5    16    17   ar
     6    17    18   ar
     7    18    19   ar
     8    19    11    1
     9    11     9    1
    10     9     1    1
    11     1     2    1
    12     2     3    1
    13     3     4    1
    14     4    24    1
    15    24    25    1
    16    25    26    1
    17    26    27   ar
    18    27    28    1
    19    27    29   ar
    20    29    30   ar
    21    30    31   ar
    22    31    32   ar
    23    32    33   ar
    24    33    34   ar
    25    34    35    1
    26    34    36   ar
    27    36    37   ar
    28     4     5    1
    29     5     6    1
    30     4     7    1
    31     7     8    1
    32    19    20   ar
    33    20    21   ar
    34    21    22    1
    35    22    13   am
    36    21    16   ar
    37     6     1    1
    38     8     1    1
    39    37    26   ar
    40    37    31   ar
    41     9    10    1
    42    35    38    1
    43    22    23    1
@<TRIPOS>MOLECULE
*****
 38 43 0 0 0
SMALL
GASTEIGER

@<TRIPOS>ATOM
      1 C         144.3826  139.7345  163.3424 C.3     1  UNL1        0.0700
      2 C         143.4181  139.2403  162.3053 C.3     1  UNL1        0.0193
      3 C         142.2404  138.4058  162.7134 C.3     1  UNL1        0.0286
      4 C         142.0272  138.0654  164.1587 C.3     1  UNL1        0.0932
      5 C         142.9916  138.5596  165.1958 C.3     1  UNL1        0.0286
      6 C         144.1694  139.3941  164.7876 C.3     1  UNL1        0.0193
      7 O         142.6870  138.5256  163.9833 O.3     1  UNL1       -0.3572
      8 C         143.7519  139.2802  163.6143 C.3     1  UNL1        0.1562
      9 N         145.5602  140.5690  162.9343 N.3     1  UNL1       -0.2926
     10 H         146.3898  140.1135  163.3146 H       1  UNL1        0.1236
     11 C         145.6339  142.0114  163.3397 C.3     1  UNL1        0.1152
     12 O         140.3409  145.5399  158.8359 O.2     1  UNL1       -0.2707
     13 C         140.8995  145.2449  160.1964 C.2     1  UNL1        0.2718
     14 C         140.2525  145.8310  161.4161 C.3     1  UNL1        0.2898
     15 O         140.8112  145.5361  162.7766 O.3     1  UNL1       -0.4628
     16 C         142.0168  144.6549  162.9174 C.ar    1  UNL1        0.1708
     17 C         142.5755  144.3599  164.2779 C.ar    1  UNL1        0.0411
     18 C         143.7811  143.4788  164.4186 C.ar    1  UNL1        0.0193
     19 C         144.4282  142.8925  163.1989 C.ar    1  UNL1        0.0765
     20 N         143.8696  143.1875  161.8384 N.ar    1  UNL1       -0.2304
     21 C         142.6639  144.0687  161.6977 C.ar    1  UNL1        0.1682
     22 N         142.1052  144.3637  160.3372 N.am    1  UNL1       -0.2639
     23 H         142.5299  143.9790  159.5367 H       1  UNL1        0.1565
     24 C         140.8495  137.2309  164.5668 C.3     1  UNL1        0.0320
     25 C         139.5675  137.8927  164.9775 C.3     1  UNL1        0.0327
     26 C         139.0494  139.0688  164.2040 C.ar    1  UNL1        0.0261
     27 C         138.3307  138.8544  162.9049 C.ar    1  UNL1        0.1566
     28 F         138.1303  137.4638  162.3792 F       1  UNL1       -0.2028
     29 C         137.8125  140.0305  162.1315 C.ar    1  UNL1        0.1281
     30 N         138.0129  141.4210  162.6571 N.ar    1  UNL1       -0.2400
     31 C         138.7315  141.6354  163.9561 C.ar    1  UNL1        0.0990
     32 C         138.9319  143.0259  164.4818 C.ar    1  UNL1        0.0254
     33 C         139.6505  143.2403  165.7809 C.ar    1  UNL1        0.0591
     34 C         140.1687  142.0642  166.5543 C.ar    1  UNL1        0.2217
     35 O         140.8873  142.2787  167.8534 O.3     1  UNL1       -0.4919
     36 N         139.9683  140.6737  166.0287 N.ar    1  UNL1       -0.2105
     37 C         139.2498  140.4593  164.7297 C.ar    1  UNL1        0.1002
     38 H         141.0125  143.1473  168.1817 H       1  UNL1        0.2937
@<TRIPOS>BOND
     1    12    13    2
     2    13    14    1
     3    14    15    1
     4    15    16    1
     5    16    17   ar
     6    17    18   ar
     7    18    19   ar
     8    19    11    1
     9    11     9    1
    10     9     1    1
    11     1     2    1
    12     2     3    1
    13     3     4    1
    14     4    24    1
    15    24    25    1
    16    25    26    1
    17    26    27   ar
    18    27    28    1
    19    27    29   ar
    20    29    30   ar
    21    30    31   ar
    22    31    32   ar
    23    32    33   ar
    24    33    34   ar
    25    34    35    1
    26    34    36   ar
    27    36    37   ar
    28     4     5    1
    29     5     6    1
    30     4     7    1
    31     7     8    1
    32    19    20   ar
    33    20    21   ar
    34    21    22    1
    35    22    13   am
    36    21    16   ar
    37     6     1    1
    38     8     1    1
    39    37    26   ar
    40    37    31   ar
    41     9    10    1
    42    35    38    1
    43    22    23    1
@<TRIPOS>MOLECULE
*****
 38 43 0 0 0
SMALL
GASTEIGER

@<TRIPOS>ATOM
      1 C         141.2255  137.5129  162.5388 C.3     1  UNL1        0.0700
      2 C         139.8352  137.9774  162.2202 C.3     1  UNL1        0.0193
      3 C         138.8419  138.1839  163.3250 C.3     1  UNL1        0.0286
      4 C         139.2388  137.9259  164.7484 C.3     1  UNL1        0.0932
      5 C         140.6290  137.4614  165.0670 C.3     1  UNL1        0.0286
      6 C         141.6224  137.2549  163.9621 C.3     1  UNL1        0.0193
      7 O         139.8177  137.7987  164.1769 O.3     1  UNL1       -0.3572
      8 C         140.7160  137.6120  163.1780 C.3     1  UNL1        0.1562
      9 N         142.2188  137.3064  161.4340 N.3     1  UNL1       -0.2926
     10 H         142.5484  136.3442  161.5104 H       1  UNL1        0.1236
     11 C         143.4380  138.1763  161.3493 C.3     1  UNL1        0.1152
     12 O         145.0518  144.1296  166.1141 O.2     1  UNL1       -0.2707
     13 C         144.4187  143.6044  164.8597 C.2     1  UNL1        0.2718
     14 C         143.6905  144.5384  163.9393 C.3     1  UNL1        0.2898
     15 O         143.0574  144.0133  162.6850 O.3     1  UNL1       -0.4628
     16 C         143.1525  142.5540  162.3511 C.ar    1  UNL1        0.1708
     17 C         142.5194  142.0288  161.0967 C.ar    1  UNL1        0.0411
     18 C         142.6146  140.5696  160.7628 C.ar    1  UNL1        0.0193
     19 C         143.3428  139.6355  161.6832 C.ar    1  UNL1        0.0765
     20 N         143.9760  140.1607  162.9376 N.ar    1  UNL1       -0.2304
     21 C         143.8808  141.6200  163.2715 C.ar    1  UNL1        0.1682
     22 N         144.5139  142.1452  164.5258 N.am    1  UNL1       -0.2639
     23 H         144.9919  141.5321  165.1299 H       1  UNL1        0.1565
     24 C         138.2454  138.1324  165.8532 C.3     1  UNL1        0.0320
     25 C         138.2164  139.4314  166.6026 C.3     1  UNL1        0.0327
     26 C         139.2380  140.4897  166.3089 C.ar    1  UNL1        0.0261
     27 C         139.0487  141.4114  165.1407 C.ar    1  UNL1        0.1566
     28 F         137.8377  141.2748  164.2662 F       1  UNL1       -0.2028
     29 C         140.0704  142.4696  164.8471 C.ar    1  UNL1        0.1281
     30 N         141.2814  142.6062  165.7216 N.ar    1  UNL1       -0.2400
     31 C         141.4707  141.6846  166.8898 C.ar    1  UNL1        0.0990
     32 C         142.6817  141.8212  167.7643 C.ar    1  UNL1        0.0254
     33 C         142.8710  140.8995  168.9325 C.ar    1  UNL1        0.0591
     34 C         141.8494  139.8412  169.2262 C.ar    1  UNL1        0.2217
     35 O         142.0387  138.9196  170.3943 O.3     1  UNL1       -0.4919
     36 N         140.6384  139.7046  168.3516 N.ar    1  UNL1       -0.2105
     37 C         140.4490  140.6263  167.1835 C.ar    1  UNL1        0.1002
     38 H         142.7952  139.0049  170.9406 H       1  UNL1        0.2937
@<TRIPOS>BOND
     1    12    13    2
     2    13    14    1
     3    14    15    1
     4    15    16    1
     5    16    17   ar
     6    17    18   ar
     7    18    19   ar
     8    19    11    1
     9    11     9    1
    10     9     1    1
    11     1     2    1
    12     2     3    1
    13     3     4    1
    14     4    24    1
    15    24    25    1
    16    25    26    1
    17    26    27   ar
    18    27    28    1
    19    27    29   ar
    20    29    30   ar
    21    30    31   ar
    22    31    32   ar
    23    32    33   ar
    24    33    34   ar
    25    34    35    1
    26    34    36   ar
    27    36    37   ar
    28     4     5    1
    29     5     6    1
    30     4     7    1
    31     7     8    1
    32    19    20   ar
    33    20    21   ar
    34    21    22    1
    35    22    13   am
    36    21    16   ar
    37     6     1    1
    38     8     1    1
    39    37    26   ar
    40    37    31   ar
    41     9    10    1
    42    35    38    1
    43    22    23    1
@<TRIPOS>MOLECULE
*****
 38 43 0 0 0
SMALL
GASTEIGER

@<TRIPOS>ATOM
      1 C         144.2221  139.6644  163.5031 C.3     1  UNL1        0.0700
      2 C         143.0565  139.5144  162.5709 C.3     1  UNL1        0.0193
      3 C         141.8079  138.8256  163.0362 C.3     1  UNL1        0.0286
      4 C         141.7249  138.2868  164.4337 C.3     1  UNL1        0.0932
      5 C         142.8905  138.4368  165.3658 C.3     1  UNL1        0.0286
      6 C         144.1391  139.1257  164.9005 C.3     1  UNL1        0.0193
      7 O         142.4300  138.6566  164.2240 O.3     1  UNL1       -0.3572
      8 C         143.5590  139.2795  163.8033 C.3     1  UNL1        0.1562
      9 N         145.4707  140.3533  163.0378 N.3     1  UNL1       -0.2926
     10 H         146.2509  139.9042  163.5174 H       1  UNL1        0.1236
     11 C         145.6315  141.8310  163.2391 C.3     1  UNL1        0.1152
     12 O         140.3451  145.6136  158.9383 O.2     1  UNL1       -0.2707
     13 C         140.9136  145.2565  160.2797 C.2     1  UNL1        0.2718
     14 C         140.2885  145.8031  161.5288 C.3     1  UNL1        0.2898
     15 O         140.8570  145.4460  162.8702 O.3     1  UNL1       -0.4628
     16 C         142.0506  144.5422  162.9624 C.ar    1  UNL1        0.1708
     17 C         142.6191  144.1851  164.3038 C.ar    1  UNL1        0.0411
     18 C         143.8127  143.2814  164.3960 C.ar    1  UNL1        0.0193
     19 C         144.4378  142.7348  163.1468 C.ar    1  UNL1        0.0765
     20 N         143.8694  143.0919  161.8055 N.ar    1  UNL1       -0.2304
     21 C         142.6757  143.9957  161.7133 C.ar    1  UNL1        0.1682
     22 N         142.1072  144.3528  160.3719 N.am    1  UNL1       -0.2639
     23 H         142.5175  143.9940  159.5520 H       1  UNL1        0.1565
     24 C         140.4763  137.5979  164.8989 C.3     1  UNL1        0.0320
     25 C         139.4249  138.3704  165.6391 C.3     1  UNL1        0.0327
     26 C         139.5296  139.8626  165.7505 C.ar    1  UNL1        0.0261
     27 C         140.2378  140.4795  166.9201 C.ar    1  UNL1        0.1566
     28 F         140.8412  139.6042  167.9783 F       1  UNL1       -0.2028
     29 C         140.3425  141.9717  167.0315 C.ar    1  UNL1        0.1281
     30 N         139.7392  142.8470  165.9733 N.ar    1  UNL1       -0.2400
     31 C         139.0311  142.2301  164.8037 C.ar    1  UNL1        0.0990
     32 C         138.4277  143.1054  163.7455 C.ar    1  UNL1        0.0254
     33 C         137.7195  142.4885  162.5759 C.ar    1  UNL1        0.0591
     34 C         137.6148  140.9963  162.4645 C.ar    1  UNL1        0.2217
     35 O         136.9066  140.3795  161.2949 O.3     1  UNL1       -0.4919
     36 N         138.2181  140.1210  163.5227 N.ar    1  UNL1       -0.2105
     37 C         138.9263  140.7379  164.6923 C.ar    1  UNL1        0.1002
     38 H         136.5297  140.9263  160.6339 H       1  UNL1        0.2937
@<TRIPOS>BOND
     1    12    13    2
     2    13    14    1
     3    14    15    1
     4    15    16    1
     5    16    17   ar
     6    17    18   ar
     7    18    19   ar
     8    19    11    1
     9    11     9    1
    10     9     1    1
    11     1     2    1
    12     2     3    1
    13     3     4    1
    14     4    24    1
    15    24    25    1
    16    25    26    1
    17    26    27   ar
    18    27    28    1
    19    27    29   ar
    20    29    30   ar
    21    30    31   ar
    22    31    32   ar
    23    32    33   ar
    24    33    34   ar
    25    34    35    1
    26    34    36   ar
    27    36    37   ar
    28     4     5    1
    29     5     6    1
    30     4     7    1
    31     7     8    1
    32    19    20   ar
    33    20    21   ar
    34    21    22    1
    35    22    13   am
    36    21    16   ar
    37     6     1    1
    38     8     1    1
    39    37    26   ar
    40    37    31   ar
    41     9    10    1
    42    35    38    1
    43    22    23    1
@<TRIPOS>MOLECULE
*****
 38 43 0 0 0
SMALL
GASTEIGER

@<TRIPOS>ATOM
      1 C         142.3834  137.8586  162.6315 C.3     1  UNL1        0.0700
      2 C         140.9970  137.7593  162.0676 C.3     1  UNL1        0.0193
      3 C         139.8122  137.7499  162.9873 C.3     1  UNL1        0.0286
      4 C         140.0137  137.8399  164.4711 C.3     1  UNL1        0.0932
      5 C         141.4001  137.9392  165.0350 C.3     1  UNL1        0.0286
      6 C         142.5850  137.9486  164.1152 C.3     1  UNL1        0.0193
      7 O         140.6937  137.8487  164.0069 O.3     1  UNL1       -0.3572
      8 C         141.7651  137.8572  163.1753 C.3     1  UNL1        0.1562
      9 N         143.5683  137.8680  161.7118 N.3     1  UNL1       -0.2926
     10 H         144.3560  137.4961  162.2425 H       1  UNL1        0.1236
     11 C         144.0301  139.1559  161.0967 C.3     1  UNL1        0.1152
     12 O         140.3393  145.9123  162.3124 O.2     1  UNL1       -0.2707
     13 C         141.4308  144.9463  162.6666 C.2     1  UNL1        0.2718
     14 C         142.3834  145.2663  163.7801 C.3     1  UNL1        0.2898
     15 O         143.4749  144.3002  164.1343 O.3     1  UNL1       -0.4628
     16 C         143.6137  143.0141  163.3749 C.ar    1  UNL1        0.1708
     17 C         144.7051  142.0481  163.7291 C.ar    1  UNL1        0.0411
     18 C         144.8440  140.7620  162.9697 C.ar    1  UNL1        0.0193
     19 C         143.8913  140.4419  161.8561 C.ar    1  UNL1        0.0765
     20 N         142.7999  141.4080  161.5019 N.ar    1  UNL1       -0.2304
     21 C         142.6611  142.6941  162.2614 C.ar    1  UNL1        0.1682
     22 N         141.5696  143.6602  161.9072 N.am    1  UNL1       -0.2639
     23 H         140.9444  143.4502  161.1763 H       1  UNL1        0.1565
     24 C         138.8288  137.8305  165.3908 C.3     1  UNL1        0.0320
     25 C         138.2492  139.1244  165.8805 C.3     1  UNL1        0.0327
     26 C         139.1248  140.3346  166.0165 C.ar    1  UNL1        0.0261
     27 C         139.4142  141.1895  164.8183 C.ar    1  UNL1        0.1566
     28 F         138.8280  140.8340  163.4842 F       1  UNL1       -0.2028
     29 C         140.2899  142.3997  164.9543 C.ar    1  UNL1        0.1281
     30 N         140.8762  142.7552  166.2884 N.ar    1  UNL1       -0.2400
     31 C         140.5868  141.9004  167.4866 C.ar    1  UNL1        0.0990
     32 C         141.1731  142.2558  168.8207 C.ar    1  UNL1        0.0254
     33 C         140.8837  141.4010  170.0189 C.ar    1  UNL1        0.0591
     34 C         140.0080  140.1908  169.8829 C.ar    1  UNL1        0.2217
     35 O         139.7187  139.3360  171.0810 O.3     1  UNL1       -0.4919
     36 N         139.4218  139.8353  168.5488 N.ar    1  UNL1       -0.2105
     37 C         139.7111  140.6901  167.3506 C.ar    1  UNL1        0.1002
     38 H         140.0849  139.5581  171.9144 H       1  UNL1        0.2937
@<TRIPOS>BOND
     1    12    13    2
     2    13    14    1
     3    14    15    1
     4    15    16    1
     5    16    17   ar
     6    17    18   ar
     7    18    19   ar
     8    19    11    1
     9    11     9    1
    10     9     1    1
    11     1     2    1
    12     2     3    1
    13     3     4    1
    14     4    24    1
    15    24    25    1
    16    25    26    1
    17    26    27   ar
    18    27    28    1
    19    27    29   ar
    20    29    30   ar
    21    30    31   ar
    22    31    32   ar
    23    32    33   ar
    24    33    34   ar
    25    34    35    1
    26    34    36   ar
    27    36    37   ar
    28     4     5    1
    29     5     6    1
    30     4     7    1
    31     7     8    1
    32    19    20   ar
    33    20    21   ar
    34    21    22    1
    35    22    13   am
    36    21    16   ar
    37     6     1    1
    38     8     1    1
    39    37    26   ar
    40    37    31   ar
    41     9    10    1
    42    35    38    1
    43    22    23    1
@<TRIPOS>MOLECULE
*****
 38 43 0 0 0
SMALL
GASTEIGER

@<TRIPOS>ATOM
      1 C         141.6958  137.6537  162.2536 C.3     1  UNL1        0.0700
      2 C         142.0711  137.5622  163.7030 C.3     1  UNL1        0.0193
      3 C         141.0235  137.7400  164.7617 C.3     1  UNL1        0.0286
      4 C         139.6005  138.0093  164.3711 C.3     1  UNL1        0.0932
      5 C         139.2251  138.1008  162.9217 C.3     1  UNL1        0.0286
      6 C         140.2728  137.9230  161.8630 C.3     1  UNL1        0.0193
      7 O         140.1396  137.9189  163.7553 O.3     1  UNL1       -0.3572
      8 C         141.0868  137.7581  162.7979 C.3     1  UNL1        0.1562
      9 N         142.7433  137.4760  161.1949 N.3     1  UNL1       -0.2926
     10 H         143.1305  136.5403  161.3179 H       1  UNL1        0.1236
     11 C         143.9068  138.4202  161.1249 C.3     1  UNL1        0.1152
     12 O         145.2456  144.1989  166.1810 O.2     1  UNL1       -0.2707
     13 C         144.6283  143.7053  164.9062 C.2     1  UNL1        0.2718
     14 C         143.8401  144.6441  164.0418 C.3     1  UNL1        0.2898
     15 O         143.2228  144.1504  162.7670 O.3     1  UNL1       -0.4628
     16 C         143.3938  142.7179  162.3564 C.ar    1  UNL1        0.1708
     17 C         142.7765  142.2242  161.0816 C.ar    1  UNL1        0.0411
     18 C         142.9475  140.7917  160.6711 C.ar    1  UNL1        0.0193
     19 C         143.7358  139.8528  161.5354 C.ar    1  UNL1        0.0765
     20 N         144.3531  140.3464  162.8103 N.ar    1  UNL1       -0.2304
     21 C         144.1821  141.7791  163.2208 C.ar    1  UNL1        0.1682
     22 N         144.7993  142.2727  164.4957 N.am    1  UNL1       -0.2639
     23 H         145.3167  141.6565  165.0630 H       1  UNL1        0.1565
     24 C         138.5529  138.1870  165.4298 C.3     1  UNL1        0.0320
     25 C         138.0624  139.5616  165.7763 C.3     1  UNL1        0.0327
     26 C         139.0447  140.6631  166.0441 C.ar    1  UNL1        0.0261
     27 C         139.9336  140.5984  167.2507 C.ar    1  UNL1        0.1566
     28 F         139.8400  139.4323  168.1895 F       1  UNL1       -0.2028
     29 C         140.9159  141.6999  167.5185 C.ar    1  UNL1        0.1281
     30 N         141.0094  142.8661  166.5797 N.ar    1  UNL1       -0.2400
     31 C         140.1207  142.9307  165.3731 C.ar    1  UNL1        0.0990
     32 C         140.2142  144.0969  164.4343 C.ar    1  UNL1        0.0254
     33 C         139.3254  144.1615  163.2277 C.ar    1  UNL1        0.0591
     34 C         138.3431  143.0601  162.9599 C.ar    1  UNL1        0.2217
     35 O         137.4543  143.1247  161.7533 O.3     1  UNL1       -0.4919
     36 N         138.2495  141.8939  163.8987 N.ar    1  UNL1       -0.2105
     37 C         139.1383  141.8292  165.1053 C.ar    1  UNL1        0.1002
     38 H         137.5128  143.8532  161.1669 H       1  UNL1        0.2937
@<TRIPOS>BOND
     1    12    13    2
     2    13    14    1
     3    14    15    1
     4    15    16    1
     5    16    17   ar
     6    17    18   ar
     7    18    19   ar
     8    19    11    1
     9    11     9    1
    10     9     1    1
    11     1     2    1
    12     2     3    1
    13     3     4    1
    14     4    24    1
    15    24    25    1
    16    25    26    1
    17    26    27   ar
    18    27    28    1
    19    27    29   ar
    20    29    30   ar
    21    30    31   ar
    22    31    32   ar
    23    32    33   ar
    24    33    34   ar
    25    34    35    1
    26    34    36   ar
    27    36    37   ar
    28     4     5    1
    29     5     6    1
    30     4     7    1
    31     7     8    1
    32    19    20   ar
    33    20    21   ar
    34    21    22    1
    35    22    13   am
    36    21    16   ar
    37     6     1    1
    38     8     1    1
    39    37    26   ar
    40    37    31   ar
    41     9    10    1
    42    35    38    1
    43    22    23    1
@<TRIPOS>MOLECULE
*****
 38 43 0 0 0
SMALL
GASTEIGER

@<TRIPOS>ATOM
      1 C         137.8604  139.8728  162.5653 C.3     1  UNL1        0.0700
      2 C         137.6707  141.1321  161.7728 C.3     1  UNL1        0.0193
      3 C         137.6052  142.4566  162.4737 C.3     1  UNL1        0.0286
      4 C         137.7295  142.5219  163.9672 C.3     1  UNL1        0.0932
      5 C         137.9191  141.2625  164.7597 C.3     1  UNL1        0.0286
      6 C         137.9846  139.9379  164.0587 C.3     1  UNL1        0.0193
      7 O         137.7714  141.7730  163.6276 O.3     1  UNL1       -0.3572
      8 C         137.8306  140.5753  162.9938 C.3     1  UNL1        0.1562
      9 N         137.9258  138.5482  161.8644 N.3     1  UNL1       -0.2926
     10 H         137.5167  137.8601  162.4965 H       1  UNL1        0.1236
     11 C         139.2496  137.9978  161.4232 C.3     1  UNL1        0.1152
     12 O         146.0165  141.6226  162.7726 O.2     1  UNL1       -0.2707
     13 C         144.9788  140.6167  163.1746 C.2     1  UNL1        0.2718
     14 C         145.1591  139.8134  164.4284 C.3     1  UNL1        0.2898
     15 O         144.1215  138.8075  164.8304 O.3     1  UNL1       -0.4628
     16 C         142.9035  138.6051  163.9786 C.ar    1  UNL1        0.1708
     17 C         141.8659  137.5993  164.3806 C.ar    1  UNL1        0.0411
     18 C         140.6479  137.3968  163.5288 C.ar    1  UNL1        0.0193
     19 C         140.4676  138.2002  162.2749 C.ar    1  UNL1        0.0765
     20 N         141.5052  139.2061  161.8730 N.ar    1  UNL1       -0.2304
     21 C         142.7232  139.4085  162.7248 C.ar    1  UNL1        0.1682
     22 N         143.7609  140.4143  162.3228 N.am    1  UNL1       -0.2639
     23 H         143.6425  140.9416  161.4999 H       1  UNL1        0.1565
     24 C         137.6640  143.8464  164.6681 C.3     1  UNL1        0.0320
     25 C         138.9030  144.6789  164.8156 C.3     1  UNL1        0.0327
     26 C         140.2444  144.0916  164.4906 C.ar    1  UNL1        0.0261
     27 C         141.0208  143.3644  165.5482 C.ar    1  UNL1        0.1566
     28 F         140.4558  143.2246  166.9307 F       1  UNL1       -0.2028
     29 C         142.3622  142.7770  165.2232 C.ar    1  UNL1        0.1281
     30 N         142.9272  142.9168  163.8408 N.ar    1  UNL1       -0.2400
     31 C         142.1508  143.6439  162.7832 C.ar    1  UNL1        0.0990
     32 C         142.7158  143.7837  161.4007 C.ar    1  UNL1        0.0254
     33 C         141.9393  144.5109  160.3432 C.ar    1  UNL1        0.0591
     34 C         140.5980  145.0983  160.6681 C.ar    1  UNL1        0.2217
     35 O         139.8216  145.8254  159.6106 O.3     1  UNL1       -0.4919
     36 N         140.0330  144.9585  162.0506 N.ar    1  UNL1       -0.2105
     37 C         140.8093  144.2313  163.1081 C.ar    1  UNL1        0.1002
     38 H         140.1745  145.9128  158.7470 H       1  UNL1        0.2937
@<TRIPOS>BOND
     1    12    13    2
     2    13    14    1
     3    14    15    1
     4    15    16    1
     5    16    17   ar
     6    17    18   ar
     7    18    19   ar
     8    19    11    1
     9    11     9    1
    10     9     1    1
    11     1     2    1
    12     2     3    1
    13     3     4    1
    14     4    24    1
    15    24    25    1
    16    25    26    1
    17    26    27   ar
    18    27    28    1
    19    27    29   ar
    20    29    30   ar
    21    30    31   ar
    22    31    32   ar
    23    32    33   ar
    24    33    34   ar
    25    34    35    1
    26    34    36   ar
    27    36    37   ar
    28     4     5    1
    29     5     6    1
    30     4     7    1
    31     7     8    1
    32    19    20   ar
    33    20    21   ar
    34    21    22    1
    35    22    13   am
    36    21    16   ar
    37     6     1    1
    38     8     1    1
    39    37    26   ar
    40    37    31   ar
    41     9    10    1
    42    35    38    1
    43    22    23    1
@<TRIPOS>MOLECULE
*****
 38 43 0 0 0
SMALL
GASTEIGER

@<TRIPOS>ATOM
      1 C         144.2940  139.6657  163.4524 C.3     1  UNL1        0.0700
      2 C         144.1040  139.2276  164.8743 C.3     1  UNL1        0.0193
      3 C         142.8882  138.4381  165.2598 C.3     1  UNL1        0.0286
      4 C         141.8624  138.0868  164.2232 C.3     1  UNL1        0.0932
      5 C         142.0524  138.5249  162.8013 C.3     1  UNL1        0.0286
      6 C         143.2682  139.3145  162.4159 C.3     1  UNL1        0.0193
      7 O         142.5123  138.5210  163.9643 O.3     1  UNL1       -0.3572
      8 C         143.6116  139.2349  163.6158 C.3     1  UNL1        0.1562
      9 N         145.5097  140.4552  163.0669 N.3     1  UNL1       -0.2926
     10 H         146.3051  140.0162  163.5306 H       1  UNL1        0.1236
     11 C         145.5820  141.9208  163.3781 C.3     1  UNL1        0.1152
     12 O         140.4826  145.6186  158.7877 O.2     1  UNL1       -0.2707
     13 C         140.9648  145.2475  160.1587 C.2     1  UNL1        0.2718
     14 C         140.2295  145.7379  161.3706 C.3     1  UNL1        0.2898
     15 O         140.7117  145.3668  162.7416 O.3     1  UNL1       -0.4628
     16 C         141.9293  144.5053  162.9008 C.ar    1  UNL1        0.1708
     17 C         142.4115  144.1342  164.2718 C.ar    1  UNL1        0.0411
     18 C         143.6291  143.2727  164.4309 C.ar    1  UNL1        0.0193
     19 C         144.3645  142.7823  163.2190 C.ar    1  UNL1        0.0765
     20 N         143.8823  143.1534  161.8480 N.ar    1  UNL1       -0.2304
     21 C         142.6646  144.0149  161.6889 C.ar    1  UNL1        0.1682
     22 N         142.1824  144.3860  160.3178 N.am    1  UNL1       -0.2639
     23 H         142.6650  144.0642  159.5224 H       1  UNL1        0.1565
     24 C         140.6466  137.2973  164.6087 C.3     1  UNL1        0.0320
     25 C         139.4491  137.9959  165.1813 C.3     1  UNL1        0.0327
     26 C         139.1804  139.4302  164.8340 C.ar    1  UNL1        0.0261
     27 C         138.4456  139.7712  163.5715 C.ar    1  UNL1        0.1566
     28 F         137.9797  138.6779  162.6563 F       1  UNL1       -0.2028
     29 C         138.1769  141.2054  163.2242 C.ar    1  UNL1        0.1281
     30 N         138.6428  142.2987  164.1393 N.ar    1  UNL1       -0.2400
     31 C         139.3775  141.9578  165.4018 C.ar    1  UNL1        0.0990
     32 C         139.8435  143.0511  166.3170 C.ar    1  UNL1        0.0254
     33 C         140.5783  142.7101  167.5795 C.ar    1  UNL1        0.0591
     34 C         140.8470  141.2759  167.9268 C.ar    1  UNL1        0.2217
     35 O         141.5818  140.9350  169.1893 O.3     1  UNL1       -0.4919
     36 N         140.3811  140.1826  167.0117 N.ar    1  UNL1       -0.2105
     37 C         139.6463  140.5235  165.7492 C.ar    1  UNL1        0.1002
     38 H         141.8728  141.6179  169.7610 H       1  UNL1        0.2937
@<TRIPOS>BOND
     1    12    13    2
     2    13    14    1
     3    14    15    1
     4    15    16    1
     5    16    17   ar
     6    17    18   ar
     7    18    19   ar
     8    19    11    1
     9    11     9    1
    10     9     1    1
    11     1     2    1
    12     2     3    1
    13     3     4    1
    14     4    24    1
    15    24    25    1
    16    25    26    1
    17    26    27   ar
    18    27    28    1
    19    27    29   ar
    20    29    30   ar
    21    30    31   ar
    22    31    32   ar
    23    32    33   ar
    24    33    34   ar
    25    34    35    1
    26    34    36   ar
    27    36    37   ar
    28     4     5    1
    29     5     6    1
    30     4     7    1
    31     7     8    1
    32    19    20   ar
    33    20    21   ar
    34    21    22    1
    35    22    13   am
    36    21    16   ar
    37     6     1    1
    38     8     1    1
    39    37    26   ar
    40    37    31   ar
    41     9    10    1
    42    35    38    1
    43    22    23    1
