@<TRIPOS>MOLECULE
*****
 31 35 0 0 0
SMALL
GASTEIGER

@<TRIPOS>ATOM
      1 O         137.7474  140.4462  162.7370 O.2     1  UNL1       -0.2749
      2 C         138.6579  141.3277  163.5395 C.2     1  UNL1        0.2250
      3 N         139.0010  140.9625  164.9534 N.am    1  UNL1       -0.2750
      4 C         138.4335  139.7158  165.5647 C.3     1  UNL1        0.1000
      5 C         138.7765  139.3506  166.9785 C.3     1  UNL1        0.0670
      6 C         139.6871  140.2321  167.7810 C.ar    1  UNL1        0.0583
      7 N         140.0301  139.8669  169.1949 N.ar    1  UNL1       -0.2484
      8 C         140.9406  140.7483  169.9974 C.ar    1  UNL1        0.1023
      9 C         141.5081  141.9950  169.3860 C.ar    1  UNL1        0.0902
     10 C         141.1650  142.3602  167.9722 C.ar    1  UNL1        0.0040
     11 C         140.2545  141.4788  167.1697 C.ar    1  UNL1        0.0113
     12 C         139.9115  141.8439  165.7559 C.3     1  UNL1        0.1213
     13 C         139.2254  142.5744  162.9282 C.3     1  UNL1        0.0704
     14 C         137.8922  142.9161  163.5247 C.3     1  UNL1        0.0087
     15 C         137.6357  144.3739  163.2821 C.3     1  UNL1        0.0005
     16 C         138.8104  144.9333  162.5356 C.3     1  UNL1        0.0005
     17 C         139.7928  143.8211  162.3168 C.3     1  UNL1        0.0095
     18 C         141.1260  143.4794  161.7203 C.3     1  UNL1        0.0162
     19 C         141.3825  142.0216  161.9629 C.3     1  UNL1        0.0544
     20 C         140.2078  141.4622  162.7094 C.3     1  UNL1        0.0243
     21 N         142.5999  141.2572  161.5342 N.3     1  UNL1       -0.2996
     22 H         142.9781  141.7391  160.7186 H       1  UNL1        0.1232
     23 C         143.7396  141.0644  162.4902 C.3     1  UNL1        0.0539
     24 C         144.8123  142.0670  162.7970 C.3     1  UNL1        0.0157
     25 C         145.7424  141.4574  163.8037 C.3     1  UNL1        0.0014
     26 C         145.2444  140.0780  164.1191 C.3     1  UNL1        0.0014
     27 C         144.0066  139.8352  163.3073 C.3     1  UNL1        0.0157
     28 C         142.4186  142.8765  170.1884 C.3     1  UNL1        0.4200
     29 F         143.3291  143.7580  170.9909 F       1  UNL1       -0.1658
     30 F         143.4123  141.7574  170.2903 F       1  UNL1       -0.1658
     31 F         141.4250  143.9956  170.0866 F       1  UNL1       -0.1658
@<TRIPOS>BOND
     1     1     2    2
     2     2     3   am
     3     3     4    1
     4     4     5    1
     5     5     6    1
     6     6     7   ar
     7     7     8   ar
     8     8     9   ar
     9     9    28    1
    10    28    29    1
    11    28    30    1
    12    28    31    1
    13     9    10   ar
    14    10    11   ar
    15    11    12    1
    16    13     2    1
    17    13    14    1
    18    14    15    1
    19    15    16    1
    20    17    16    1
    21    17    18    1
    22    18    19    1
    23    19    21    1
    24    21    23    1
    25    23    24    1
    26    24    25    1
    27    25    26    1
    28    26    27    1
    29    19    20    1
    30    12     3    1
    31    17    13    1
    32    27    23    1
    33    11     6   ar
    34    20    13    1
    35    21    22    1
@<TRIPOS>MOLECULE
*****
 31 35 0 0 0
SMALL
GASTEIGER

@<TRIPOS>ATOM
      1 O         143.1384  138.8796  167.4007 O.2     1  UNL1       -0.2749
      2 C         142.1129  139.8392  166.8736 C.2     1  UNL1        0.2250
      3 N         142.4822  140.8135  165.7945 N.am    1  UNL1       -0.2750
      4 C         143.8768  140.8284  165.2426 C.3     1  UNL1        0.1000
      5 C         144.2461  141.8027  164.1636 C.3     1  UNL1        0.0670
      6 C         143.2206  142.7622  163.6365 C.ar    1  UNL1        0.0583
      7 N         143.5899  143.7366  162.5574 N.ar    1  UNL1       -0.2484
      8 C         142.5644  144.6961  162.0304 C.ar    1  UNL1        0.1023
      9 C         141.1697  144.6812  162.5824 C.ar    1  UNL1        0.0902
     10 C         140.8005  143.7069  163.6614 C.ar    1  UNL1        0.0040
     11 C         141.8260  142.7474  164.1884 C.ar    1  UNL1        0.0113
     12 C         141.4567  141.7730  165.2674 C.3     1  UNL1        0.1213
     13 C         140.7183  139.8243  167.4255 C.3     1  UNL1        0.0704
     14 C         141.6141  140.4603  168.4467 C.3     1  UNL1        0.0087
     15 C         140.7732  140.8386  169.6298 C.3     1  UNL1        0.0005
     16 C         139.3575  140.4364  169.3398 C.3     1  UNL1        0.0005
     17 C         139.3235  139.8095  167.9775 C.3     1  UNL1        0.0095
     18 C         138.4277  139.1735  166.9563 C.3     1  UNL1        0.0162
     19 C         139.2686  138.7953  165.7732 C.3     1  UNL1        0.0544
     20 C         140.6843  139.1975  166.0632 C.3     1  UNL1        0.0243
     21 N         138.7797  138.1313  164.5201 N.3     1  UNL1       -0.2996
     22 H         137.9769  137.5600  164.7836 H       1  UNL1        0.1232
     23 C         138.3525  138.9640  163.3478 C.3     1  UNL1        0.0539
     24 C         138.0614  138.4577  161.9662 C.3     1  UNL1        0.0157
     25 C         137.6704  139.6299  161.1158 C.3     1  UNL1        0.0014
     26 C         137.7199  140.8606  161.9720 C.3     1  UNL1        0.0014
     27 C         138.1415  140.4490  163.3514 C.3     1  UNL1        0.0157
     28 C         140.1443  145.6407  162.0553 C.3     1  UNL1        0.4200
     29 F         139.1188  146.6002  161.5282 F       1  UNL1       -0.1658
     30 F         139.3729  145.5198  163.3360 F       1  UNL1       -0.1658
     31 F         140.9157  145.7616  160.7745 F       1  UNL1       -0.1658
@<TRIPOS>BOND
     1     1     2    2
     2     2     3   am
     3     3     4    1
     4     4     5    1
     5     5     6    1
     6     6     7   ar
     7     7     8   ar
     8     8     9   ar
     9     9    28    1
    10    28    29    1
    11    28    30    1
    12    28    31    1
    13     9    10   ar
    14    10    11   ar
    15    11    12    1
    16    13     2    1
    17    13    14    1
    18    14    15    1
    19    15    16    1
    20    17    16    1
    21    17    18    1
    22    18    19    1
    23    19    21    1
    24    21    23    1
    25    23    24    1
    26    24    25    1
    27    25    26    1
    28    26    27    1
    29    19    20    1
    30    12     3    1
    31    17    13    1
    32    27    23    1
    33    11     6   ar
    34    20    13    1
    35    21    22    1
@<TRIPOS>MOLECULE
*****
 31 35 0 0 0
SMALL
GASTEIGER

@<TRIPOS>ATOM
      1 O         143.4105  138.8117  168.0620 O.2     1  UNL1       -0.2749
      2 C         142.5772  139.9985  167.6785 C.2     1  UNL1        0.2250
      3 N         142.7476  140.6298  166.3284 N.am    1  UNL1       -0.2750
      4 C         143.7512  140.0742  165.3620 C.3     1  UNL1        0.1000
      5 C         143.9215  140.7055  164.0120 C.3     1  UNL1        0.0670
      6 C         143.0882  141.8923  163.6285 C.ar    1  UNL1        0.0583
      7 N         143.2586  142.5236  162.2785 N.ar    1  UNL1       -0.2484
      8 C         142.4253  143.7105  161.8950 C.ar    1  UNL1        0.1023
      9 C         141.4216  144.2660  162.8615 C.ar    1  UNL1        0.0902
     10 C         141.2513  143.6347  164.2114 C.ar    1  UNL1        0.0040
     11 C         142.0846  142.4479  164.5950 C.ar    1  UNL1        0.0113
     12 C         141.9143  141.8166  165.9449 C.3     1  UNL1        0.1213
     13 C         141.5736  140.5541  168.6449 C.3     1  UNL1        0.0704
     14 C         142.9339  141.0230  169.0687 C.3     1  UNL1        0.0087
     15 C         142.7710  141.8683  170.2970 C.3     1  UNL1        0.0005
     16 C         141.3100  141.9219  170.6325 C.3     1  UNL1        0.0005
     17 C         140.5699  141.1097  169.6114 C.3     1  UNL1        0.0095
     18 C         139.2096  140.6408  169.1877 C.3     1  UNL1        0.0162
     19 C         139.3724  139.7954  167.9593 C.3     1  UNL1        0.0544
     20 C         140.8335  139.7418  167.6239 C.3     1  UNL1        0.0243
     21 N         138.2681  139.1219  167.1998 N.3     1  UNL1       -0.2996
     22 H         137.4365  139.7015  167.3133 H       1  UNL1        0.1232
     23 C         138.4181  138.8631  165.7299 C.3     1  UNL1        0.0539
     24 C         138.1930  139.8597  164.6317 C.3     1  UNL1        0.0157
     25 C         138.4554  139.1748  163.3232 C.3     1  UNL1        0.0014
     26 C         138.8427  137.7548  163.6128 C.3     1  UNL1        0.0014
     27 C         138.8197  137.5622  165.1002 C.3     1  UNL1        0.0157
     28 C         140.5884  145.4528  162.4780 C.3     1  UNL1        0.4200
     29 F         139.7551  146.6397  162.0945 F       1  UNL1       -0.1658
     30 F         141.2621  145.4930  161.1384 F       1  UNL1       -0.1658
     31 F         139.9146  145.4127  163.8176 F       1  UNL1       -0.1658
@<TRIPOS>BOND
     1     1     2    2
     2     2     3   am
     3     3     4    1
     4     4     5    1
     5     5     6    1
     6     6     7   ar
     7     7     8   ar
     8     8     9   ar
     9     9    28    1
    10    28    29    1
    11    28    30    1
    12    28    31    1
    13     9    10   ar
    14    10    11   ar
    15    11    12    1
    16    13     2    1
    17    13    14    1
    18    14    15    1
    19    15    16    1
    20    17    16    1
    21    17    18    1
    22    18    19    1
    23    19    21    1
    24    21    23    1
    25    23    24    1
    26    24    25    1
    27    25    26    1
    28    26    27    1
    29    19    20    1
    30    12     3    1
    31    17    13    1
    32    27    23    1
    33    11     6   ar
    34    20    13    1
    35    21    22    1
@<TRIPOS>MOLECULE
*****
 31 35 0 0 0
SMALL
GASTEIGER

@<TRIPOS>ATOM
      1 O         139.7614  137.5824  161.9231 O.2     1  UNL1       -0.2749
      2 C         140.4425  138.6596  162.7140 C.2     1  UNL1        0.2250
      3 N         140.0338  138.9201  164.1336 N.am    1  UNL1       -0.2750
      4 C         138.9439  138.1033  164.7622 C.3     1  UNL1        0.1000
      5 C         138.5352  138.3638  166.1817 C.3     1  UNL1        0.0670
      6 C         139.2164  139.4410  166.9726 C.ar    1  UNL1        0.0583
      7 N         138.8076  139.7015  168.3922 N.ar    1  UNL1       -0.2484
      8 C         139.4888  140.7787  169.1832 C.ar    1  UNL1        0.1023
      9 C         140.5787  141.5954  168.5546 C.ar    1  UNL1        0.0902
     10 C         140.9874  141.3349  167.1351 C.ar    1  UNL1        0.0040
     11 C         140.3062  140.2577  166.3441 C.ar    1  UNL1        0.0113
     12 C         140.7149  139.9973  164.9246 C.3     1  UNL1        0.1213
     13 C         141.5324  139.4763  162.0855 C.3     1  UNL1        0.0704
     14 C         142.0495  138.0811  162.2754 C.3     1  UNL1        0.0087
     15 C         143.4590  138.0356  161.7642 C.3     1  UNL1        0.0005
     16 C         143.8130  139.4026  161.2584 C.3     1  UNL1        0.0005
     17 C         142.6224  140.2930  161.4569 C.3     1  UNL1        0.0095
     18 C         142.1053  141.6882  161.2671 C.3     1  UNL1        0.0162
     19 C         140.6958  141.7338  161.7783 C.3     1  UNL1        0.0544
     20 C         140.3418  140.3668  162.2841 C.3     1  UNL1        0.0243
     21 N         139.7980  142.9355  161.7828 N.3     1  UNL1       -0.2996
     22 H         138.9823  142.6958  161.2193 H       1  UNL1        0.1232
     23 C         139.2820  143.4813  163.0812 C.3     1  UNL1        0.0539
     24 C         137.8604  143.8577  163.3766 C.3     1  UNL1        0.0157
     25 C         137.7968  144.3556  164.7902 C.3     1  UNL1        0.0014
     26 C         139.1792  144.2868  165.3684 C.3     1  UNL1        0.0014
     27 C         140.0971  143.7464  164.3122 C.3     1  UNL1        0.0157
     28 C         141.2599  142.6726  169.3456 C.3     1  UNL1        0.4200
     29 F         141.9410  143.7498  170.1366 F       1  UNL1       -0.1658
     30 F         142.3259  141.6992  169.7532 F       1  UNL1       -0.1658
     31 F         140.1938  143.6460  168.9380 F       1  UNL1       -0.1658
@<TRIPOS>BOND
     1     1     2    2
     2     2     3   am
     3     3     4    1
     4     4     5    1
     5     5     6    1
     6     6     7   ar
     7     7     8   ar
     8     8     9   ar
     9     9    28    1
    10    28    29    1
    11    28    30    1
    12    28    31    1
    13     9    10   ar
    14    10    11   ar
    15    11    12    1
    16    13     2    1
    17    13    14    1
    18    14    15    1
    19    15    16    1
    20    17    16    1
    21    17    18    1
    22    18    19    1
    23    19    21    1
    24    21    23    1
    25    23    24    1
    26    24    25    1
    27    25    26    1
    28    26    27    1
    29    19    20    1
    30    12     3    1
    31    17    13    1
    32    27    23    1
    33    11     6   ar
    34    20    13    1
    35    21    22    1
@<TRIPOS>MOLECULE
*****
 31 35 0 0 0
SMALL
GASTEIGER

@<TRIPOS>ATOM
      1 O         142.9127  138.1045  166.0788 O.2     1  UNL1       -0.2749
      2 C         141.9211  139.0201  165.4244 C.2     1  UNL1        0.2250
      3 N         142.3501  140.3794  164.9571 N.am    1  UNL1       -0.2750
      4 C         143.7707  140.8231  165.1443 C.3     1  UNL1        0.1000
      5 C         144.1996  142.1823  164.6770 C.3     1  UNL1        0.0670
      6 C         143.2080  143.0979  164.0225 C.ar    1  UNL1        0.0583
      7 N         143.6371  144.4572  163.5552 N.ar    1  UNL1       -0.2484
      8 C         142.6454  145.3729  162.9008 C.ar    1  UNL1        0.1023
      9 C         141.2248  144.9292  162.7136 C.ar    1  UNL1        0.0902
     10 C         140.7958  143.5699  163.1809 C.ar    1  UNL1        0.0040
     11 C         141.7874  142.6543  163.8354 C.ar    1  UNL1        0.0113
     12 C         141.3585  141.2951  164.3026 C.3     1  UNL1        0.1213
     13 C         140.5005  138.5765  165.2372 C.3     1  UNL1        0.0704
     14 C         141.2777  138.1680  164.0211 C.3     1  UNL1        0.0087
     15 C         140.3374  137.4719  163.0822 C.3     1  UNL1        0.0005
     16 C         138.9791  137.4502  163.7181 C.3     1  UNL1        0.0005
     17 C         139.0798  138.1329  165.0500 C.3     1  UNL1        0.0095
     18 C         138.3026  138.5413  166.2662 C.3     1  UNL1        0.0162
     19 C         139.2429  139.2374  167.2050 C.3     1  UNL1        0.0544
     20 C         140.6012  139.2592  166.5691 C.3     1  UNL1        0.0243
     21 N         138.8872  139.8111  168.5446 N.3     1  UNL1       -0.2996
     22 H         138.4951  139.0484  169.0968 H       1  UNL1        0.1232
     23 C         139.9454  140.4572  169.3887 C.3     1  UNL1        0.0539
     24 C         140.1108  141.9299  169.6208 C.3     1  UNL1        0.0157
     25 C         141.2917  142.1271  170.5245 C.3     1  UNL1        0.0014
     26 C         141.8562  140.7761  170.8509 C.3     1  UNL1        0.0014
     27 C         141.0241  139.7442  170.1489 C.3     1  UNL1        0.0157
     28 C         140.2331  145.8448  162.0592 C.3     1  UNL1        0.4200
     29 F         139.2415  146.7604  161.4047 F       1  UNL1       -0.1658
     30 F         139.4062  145.8437  163.3107 F       1  UNL1       -0.1658
     31 F         141.0601  145.8459  160.8077 F       1  UNL1       -0.1658
@<TRIPOS>BOND
     1     1     2    2
     2     2     3   am
     3     3     4    1
     4     4     5    1
     5     5     6    1
     6     6     7   ar
     7     7     8   ar
     8     8     9   ar
     9     9    28    1
    10    28    29    1
    11    28    30    1
    12    28    31    1
    13     9    10   ar
    14    10    11   ar
    15    11    12    1
    16    13     2    1
    17    13    14    1
    18    14    15    1
    19    15    16    1
    20    17    16    1
    21    17    18    1
    22    18    19    1
    23    19    21    1
    24    21    23    1
    25    23    24    1
    26    24    25    1
    27    25    26    1
    28    26    27    1
    29    19    20    1
    30    12     3    1
    31    17    13    1
    32    27    23    1
    33    11     6   ar
    34    20    13    1
    35    21    22    1
@<TRIPOS>MOLECULE
*****
 31 35 0 0 0
SMALL
GASTEIGER

@<TRIPOS>ATOM
      1 O         142.4258  137.6680  162.4562 O.2     1  UNL1       -0.2749
      2 C         141.5639  138.5908  163.2659 C.2     1  UNL1        0.2250
      3 N         141.9024  138.8668  164.7010 N.am    1  UNL1       -0.2750
      4 C         143.1028  138.2202  165.3262 C.3     1  UNL1        0.1000
      5 C         143.4413  138.4962  166.7611 C.3     1  UNL1        0.0670
      6 C         142.5794  139.4190  167.5709 C.ar    1  UNL1        0.0583
      7 N         142.9179  139.6951  169.0059 N.ar    1  UNL1       -0.2484
      8 C         142.0561  140.6178  169.8157 C.ar    1  UNL1        0.1023
      9 C         140.8557  141.2645  169.1904 C.ar    1  UNL1        0.0902
     10 C         140.5172  140.9884  167.7555 C.ar    1  UNL1        0.0040
     11 C         141.3790  140.0657  166.9457 C.ar    1  UNL1        0.0113
     12 C         141.0406  139.7896  165.5107 C.3     1  UNL1        0.1213
     13 C         140.3635  139.2374  162.6407 C.3     1  UNL1        0.0704
     14 C         139.9352  137.9173  163.2097 C.3     1  UNL1        0.0087
     15 C         138.4701  137.7481  162.9362 C.3     1  UNL1        0.0005
     16 C         137.9929  138.9636  162.1981 C.3     1  UNL1        0.0005
     17 C         139.1631  139.8841  162.0155 C.3     1  UNL1        0.0095
     18 C         139.5914  141.2042  161.4465 C.3     1  UNL1        0.0162
     19 C         141.0566  141.3734  161.7201 C.3     1  UNL1        0.0544
     20 C         141.5337  140.1579  162.4581 C.3     1  UNL1        0.0243
     21 N         141.8970  142.5515  161.3249 N.3     1  UNL1       -0.2996
     22 H         141.3766  143.0571  160.6080 H       1  UNL1        0.1232
     23 C         142.3057  143.5609  162.3564 C.3     1  UNL1        0.0539
     24 C         143.5928  143.5628  163.1267 C.3     1  UNL1        0.0157
     25 C         143.5816  144.7488  164.0450 C.3     1  UNL1        0.0014
     26 C         142.2876  145.4799  163.8422 C.3     1  UNL1        0.0014
     27 C         141.4990  144.7457  162.7986 C.3     1  UNL1        0.0157
     28 C         139.9938  142.1873  170.0002 C.3     1  UNL1        0.4200
     29 F         139.1319  143.1100  170.8099 F       1  UNL1       -0.1658
     30 F         138.9290  141.1330  170.0683 F       1  UNL1       -0.1658
     31 F         141.0586  143.2416  169.9320 F       1  UNL1       -0.1658
@<TRIPOS>BOND
     1     1     2    2
     2     2     3   am
     3     3     4    1
     4     4     5    1
     5     5     6    1
     6     6     7   ar
     7     7     8   ar
     8     8     9   ar
     9     9    28    1
    10    28    29    1
    11    28    30    1
    12    28    31    1
    13     9    10   ar
    14    10    11   ar
    15    11    12    1
    16    13     2    1
    17    13    14    1
    18    14    15    1
    19    15    16    1
    20    17    16    1
    21    17    18    1
    22    18    19    1
    23    19    21    1
    24    21    23    1
    25    23    24    1
    26    24    25    1
    27    25    26    1
    28    26    27    1
    29    19    20    1
    30    12     3    1
    31    17    13    1
    32    27    23    1
    33    11     6   ar
    34    20    13    1
    35    21    22    1
@<TRIPOS>MOLECULE
*****
 31 35 0 0 0
SMALL
GASTEIGER

@<TRIPOS>ATOM
      1 O         141.8224  139.2211  162.1106 O.2     1  UNL1       -0.2749
      2 C         142.0692  139.9961  163.3709 C.2     1  UNL1        0.2250
      3 N         141.1653  139.8120  164.5538 N.am    1  UNL1       -0.2750
      4 C         140.0145  138.8531  164.4763 C.3     1  UNL1        0.1000
      5 C         139.1106  138.6690  165.6591 C.3     1  UNL1        0.0670
      6 C         139.3575  139.4440  166.9194 C.ar    1  UNL1        0.0583
      7 N         138.4536  139.2600  168.1023 N.ar    1  UNL1       -0.2484
      8 C         138.7004  140.0350  169.3626 C.ar    1  UNL1        0.1023
      9 C         139.8513  140.9940  169.4401 C.ar    1  UNL1        0.0902
     10 C         140.7551  141.1780  168.2573 C.ar    1  UNL1        0.0040
     11 C         140.5083  140.4030  166.9970 C.ar    1  UNL1        0.0113
     12 C         141.4121  140.5870  165.8141 C.3     1  UNL1        0.1213
     13 C         143.2200  140.9551  163.4485 C.3     1  UNL1        0.0704
     14 C         143.7440  139.5784  163.7316 C.3     1  UNL1        0.0087
     15 C         145.2187  139.6866  163.9841 C.3     1  UNL1        0.0005
     16 C         145.6060  141.1301  163.8571 C.3     1  UNL1        0.0005
     17 C         144.3708  141.9141  163.5260 C.3     1  UNL1        0.0095
     18 C         143.8468  143.2908  163.2429 C.3     1  UNL1        0.0162
     19 C         142.3722  143.1826  162.9904 C.3     1  UNL1        0.0544
     20 C         141.9848  141.7391  163.1174 C.3     1  UNL1        0.0243
     21 N         141.4473  144.3186  162.6675 N.3     1  UNL1       -0.2996
     22 H         141.3676  144.3537  161.6512 H       1  UNL1        0.1232
     23 C         140.0496  144.3258  163.2118 C.3     1  UNL1        0.0539
     24 C         139.6612  144.5646  164.6409 C.3     1  UNL1        0.0157
     25 C         138.1664  144.4818  164.7350 C.3     1  UNL1        0.0014
     26 C         137.6311  144.1918  163.3641 C.3     1  UNL1        0.0014
     27 C         138.7949  144.0954  162.4227 C.3     1  UNL1        0.0157
     28 C         140.0981  141.7690  170.7004 C.3     1  UNL1        0.4200
     29 F         140.3450  142.5440  171.9608 F       1  UNL1       -0.1658
     30 F         139.7061  143.0353  169.9985 F       1  UNL1       -0.1658
     31 F         140.4901  140.5026  171.4023 F       1  UNL1       -0.1658
@<TRIPOS>BOND
     1     1     2    2
     2     2     3   am
     3     3     4    1
     4     4     5    1
     5     5     6    1
     6     6     7   ar
     7     7     8   ar
     8     8     9   ar
     9     9    28    1
    10    28    29    1
    11    28    30    1
    12    28    31    1
    13     9    10   ar
    14    10    11   ar
    15    11    12    1
    16    13     2    1
    17    13    14    1
    18    14    15    1
    19    15    16    1
    20    17    16    1
    21    17    18    1
    22    18    19    1
    23    19    21    1
    24    21    23    1
    25    23    24    1
    26    24    25    1
    27    25    26    1
    28    26    27    1
    29    19    20    1
    30    12     3    1
    31    17    13    1
    32    27    23    1
    33    11     6   ar
    34    20    13    1
    35    21    22    1
@<TRIPOS>MOLECULE
*****
 31 35 0 0 0
SMALL
GASTEIGER

@<TRIPOS>ATOM
      1 O         142.4213  138.9500  167.4649 O.2     1  UNL1       -0.2749
      2 C         141.5956  139.5974  166.3929 C.2     1  UNL1        0.2250
      3 N         142.0579  140.8763  165.7597 N.am    1  UNL1       -0.2750
      4 C         143.3458  141.5077  166.1985 C.3     1  UNL1        0.1000
      5 C         143.8080  142.7865  165.5653 C.3     1  UNL1        0.0670
      6 C         142.9824  143.4339  164.4933 C.ar    1  UNL1        0.0583
      7 N         143.4447  144.7128  163.8601 N.ar    1  UNL1       -0.2484
      8 C         142.6190  145.3602  162.7882 C.ar    1  UNL1        0.1023
      9 C         141.3310  144.7287  162.3494 C.ar    1  UNL1        0.0902
     10 C         140.8688  143.4499  162.9826 C.ar    1  UNL1        0.0040
     11 C         141.6945  142.8025  164.0545 C.ar    1  UNL1        0.0113
     12 C         141.2322  141.5237  164.6877 C.3     1  UNL1        0.1213
     13 C         140.3077  138.9661  165.9541 C.3     1  UNL1        0.0704
     14 C         140.0341  139.7628  167.1952 C.3     1  UNL1        0.0087
     15 C         138.5770  139.6238  167.5235 C.3     1  UNL1        0.0005
     16 C         137.9501  138.7412  166.4853 C.3     1  UNL1        0.0005
     17 C         139.0197  138.3346  165.5153 C.3     1  UNL1        0.0095
     18 C         139.2933  137.5379  164.2743 C.3     1  UNL1        0.0162
     19 C         140.7503  137.6769  163.9460 C.3     1  UNL1        0.0544
     20 C         141.3772  138.5595  164.9842 C.3     1  UNL1        0.0243
     21 N         141.4565  137.0442  162.7835 N.3     1  UNL1       -0.2996
     22 H         140.7517  136.5292  162.2558 H       1  UNL1        0.1232
     23 C         142.1951  137.9007  161.7983 C.3     1  UNL1        0.0539
     24 C         143.6855  138.0168  161.6742 C.3     1  UNL1        0.0157
     25 C         143.9846  138.9793  160.5633 C.3     1  UNL1        0.0014
     26 C         142.6790  139.4582  160.0009 C.3     1  UNL1        0.0014
     27 C         141.5731  138.7916  160.7641 C.3     1  UNL1        0.0157
     28 C         140.5053  145.3761  161.2774 C.3     1  UNL1        0.4200
     29 F         139.6796  146.0235  160.2054 F       1  UNL1       -0.1658
     30 F         140.2176  146.5277  162.1945 F       1  UNL1       -0.1658
     31 F         140.7930  144.2245  160.3603 F       1  UNL1       -0.1658
@<TRIPOS>BOND
     1     1     2    2
     2     2     3   am
     3     3     4    1
     4     4     5    1
     5     5     6    1
     6     6     7   ar
     7     7     8   ar
     8     8     9   ar
     9     9    28    1
    10    28    29    1
    11    28    30    1
    12    28    31    1
    13     9    10   ar
    14    10    11   ar
    15    11    12    1
    16    13     2    1
    17    13    14    1
    18    14    15    1
    19    15    16    1
    20    17    16    1
    21    17    18    1
    22    18    19    1
    23    19    21    1
    24    21    23    1
    25    23    24    1
    26    24    25    1
    27    25    26    1
    28    26    27    1
    29    19    20    1
    30    12     3    1
    31    17    13    1
    32    27    23    1
    33    11     6   ar
    34    20    13    1
    35    21    22    1
@<TRIPOS>MOLECULE
*****
 31 35 0 0 0
SMALL
GASTEIGER

@<TRIPOS>ATOM
      1 O         142.1801  143.3076  159.4211 O.2     1  UNL1       -0.2749
      2 C         141.5592  143.0723  160.7661 C.2     1  UNL1        0.2250
      3 N         141.0575  141.7068  161.1320 N.am    1  UNL1       -0.2750
      4 C         141.1767  140.5768  160.1529 C.3     1  UNL1        0.1000
      5 C         140.6749  139.2114  160.5188 C.3     1  UNL1        0.0670
      6 C         140.0540  138.9760  161.8638 C.ar    1  UNL1        0.0583
      7 N         139.5523  137.6106  162.2297 N.ar    1  UNL1       -0.2484
      8 C         138.9313  137.3752  163.5747 C.ar    1  UNL1        0.1023
      9 C         138.8122  138.5054  164.5538 C.ar    1  UNL1        0.0902
     10 C         139.3139  139.8708  164.1879 C.ar    1  UNL1        0.0040
     11 C         139.9348  140.1061  162.8429 C.ar    1  UNL1        0.0113
     12 C         140.4365  141.4715  162.4770 C.3     1  UNL1        0.1213
     13 C         141.4400  144.2024  161.7452 C.3     1  UNL1        0.0704
     14 C         140.4183  144.4132  160.6674 C.3     1  UNL1        0.0087
     15 C         139.6677  145.6736  160.9804 C.3     1  UNL1        0.0005
     16 C         140.2254  146.2417  162.2517 C.3     1  UNL1        0.0005
     17 C         141.3208  145.3325  162.7244 C.3     1  UNL1        0.0095
     18 C         142.3425  145.1216  163.8022 C.3     1  UNL1        0.0162
     19 C         143.0931  143.8613  163.4892 C.3     1  UNL1        0.0544
     20 C         142.5354  143.2931  162.2180 C.3     1  UNL1        0.0243
     21 N         144.2061  143.2724  164.3044 N.3     1  UNL1       -0.2996
     22 H         144.1310  143.6741  165.2390 H       1  UNL1        0.1232
     23 C         144.3028  141.7857  164.4786 C.3     1  UNL1        0.0539
     24 C         143.2930  140.9103  165.1598 C.3     1  UNL1        0.0157
     25 C         143.7924  139.4969  165.1044 C.3     1  UNL1        0.0014
     26 C         145.1108  139.4989  164.3889 C.3     1  UNL1        0.0014
     27 C         145.4262  140.9134  164.0022 C.3     1  UNL1        0.0157
     28 C         138.1912  138.2700  165.8988 C.3     1  UNL1        0.4200
     29 F         137.5703  138.0347  167.2438 F       1  UNL1       -0.1658
     30 F         137.8287  139.7230  165.9857 F       1  UNL1       -0.1658
     31 F         138.5537  136.8171  165.8120 F       1  UNL1       -0.1658
@<TRIPOS>BOND
     1     1     2    2
     2     2     3   am
     3     3     4    1
     4     4     5    1
     5     5     6    1
     6     6     7   ar
     7     7     8   ar
     8     8     9   ar
     9     9    28    1
    10    28    29    1
    11    28    30    1
    12    28    31    1
    13     9    10   ar
    14    10    11   ar
    15    11    12    1
    16    13     2    1
    17    13    14    1
    18    14    15    1
    19    15    16    1
    20    17    16    1
    21    17    18    1
    22    18    19    1
    23    19    21    1
    24    21    23    1
    25    23    24    1
    26    24    25    1
    27    25    26    1
    28    26    27    1
    29    19    20    1
    30    12     3    1
    31    17    13    1
    32    27    23    1
    33    11     6   ar
    34    20    13    1
    35    21    22    1
