@<TRIPOS>MOLECULE
*****
 32 35 0 0 0
SMALL
GASTEIGER

@<TRIPOS>ATOM
      1 C         141.1695  143.4432  159.1610 C.3     1  UNL1        0.2563
      2 N         140.4043  143.5501  160.4467 N.2     1  UNL1       -0.2434
      3 C         140.9008  143.3588  161.8492 C.2     1  UNL1        0.0795
      4 C         142.2851  143.0133  162.3123 C.ar    1  UNL1        0.0310
      5 C         142.3543  142.9158  163.8075 C.ar    1  UNL1        0.0027
      6 C         143.6532  142.5788  164.4777 C.ar    1  UNL1        0.0001
      7 C         144.8829  142.3393  163.6528 C.ar    1  UNL1        0.0013
      8 C         144.8136  142.4368  162.1576 C.ar    1  UNL1        0.0149
      9 C         143.5147  142.7738  161.4874 C.ar    1  UNL1        0.0554
     10 N         143.6638  142.8207  159.9955 N.am    1  UNL1       -0.2538
     11 C         145.0384  142.5313  159.4694 C.3     1  UNL1        0.1201
     12 C         142.6201  143.1185  158.9601 C.2     1  UNL1        0.2712
     13 O         143.0890  143.0877  157.5357 O.2     1  UNL1       -0.2705
     14 N         139.6292  145.2943  156.0065 N.am    1  UNL1       -0.2683
     15 C         140.4191  145.0434  157.2567 C.2     1  UNL1        0.3061
     16 O         141.2486  146.1419  157.8529 O.2     1  UNL1       -0.2524
     17 N         140.3796  143.6941  157.9108 N.am    1  UNL1       -0.2638
     18 H         139.0848  144.5733  155.6152 H       1  UNL1        0.1564
     19 H         139.8352  142.9731  157.5194 H       1  UNL1        0.1531
     20 C         138.2890  150.3144  155.9620 C.3     1  UNL1        0.0311
     21 C         138.9986  149.1537  155.3302 C.ar    1  UNL1       -0.0206
     22 C         139.7478  149.3423  154.0444 C.ar    1  UNL1       -0.0042
     23 C         140.4575  148.1816  153.4127 C.ar    1  UNL1        0.0010
     24 C         140.4179  146.8322  154.0667 C.ar    1  UNL1        0.0147
     25 C         139.6687  146.6436  155.3524 C.ar    1  UNL1        0.0513
     26 C         138.9591  147.8044  155.9842 C.ar    1  UNL1        0.0105
     27 C         139.8778  143.5365  162.9317 C.ar    1  UNL1        0.0174
     28 C         139.9084  144.7599  163.7991 C.ar    1  UNL1        0.0015
     29 C         138.8854  144.9376  164.8816 C.ar    1  UNL1        0.0000
     30 C         137.8317  143.8919  165.0967 C.ar    1  UNL1        0.0000
     31 C         137.8010  142.6686  164.2293 C.ar    1  UNL1        0.0000
     32 C         138.8240  142.4908  163.1468 C.ar    1  UNL1        0.0015
@<TRIPOS>BOND
     1    20    21    1
     2    21    22   ar
     3    22    23   ar
     4    23    24   ar
     5    24    25   ar
     6    25    14    1
     7    14    15   am
     8    15    16    2
     9    15    17   am
    10     1    17    1
    11     1     2    1
    12     2     3    2
    13     3    27    1
    14    27    28   ar
    15    28    29   ar
    16    29    30   ar
    17    30    31   ar
    18    31    32   ar
    19     3     4    1
    20     4     5   ar
    21     5     6   ar
    22     6     7   ar
    23     7     8   ar
    24     8     9   ar
    25     9    10    1
    26    10    11    1
    27    10    12   am
    28    12    13    2
    29    25    26   ar
    30    26    21   ar
    31    12     1    1
    32    32    27   ar
    33     9     4   ar
    34    14    18    1
    35    17    19    1
@<TRIPOS>MOLECULE
*****
 32 35 0 0 0
SMALL
GASTEIGER

@<TRIPOS>ATOM
      1 C         142.8197  143.0244  161.7230 C.3     1  UNL1        0.2563
      2 N         141.7847  141.9403  161.7838 N.2     1  UNL1       -0.2434
      3 C         141.2896  141.1862  162.9822 C.2     1  UNL1        0.0795
      4 C         141.7073  141.3298  164.4158 C.ar    1  UNL1        0.0310
      5 C         140.9604  140.3777  165.3021 C.ar    1  UNL1        0.0027
      6 C         141.2294  140.3589  166.7777 C.ar    1  UNL1        0.0001
      7 C         142.2452  141.2921  167.3668 C.ar    1  UNL1        0.0013
      8 C         142.9921  142.2441  166.4805 C.ar    1  UNL1        0.0149
      9 C         142.7231  142.2630  165.0049 C.ar    1  UNL1        0.0554
     10 N         143.5722  143.2831  164.3060 N.am    1  UNL1       -0.2538
     11 C         144.5012  144.0682  165.1839 C.3     1  UNL1        0.1201
     12 C         143.6152  143.6220  162.8455 C.2     1  UNL1        0.2712
     13 O         144.5815  144.7011  162.4559 O.2     1  UNL1       -0.2705
     14 N         144.0688  143.3060  157.9666 N.am    1  UNL1       -0.2683
     15 C         143.7929  142.7454  159.3303 C.2     1  UNL1        0.3061
     16 O         144.2143  141.3452  159.6650 O.2     1  UNL1       -0.2524
     17 N         143.0956  143.5850  160.3593 N.am    1  UNL1       -0.2638
     18 H         143.7922  144.2249  157.7470 H       1  UNL1        0.1564
     19 H         142.8190  144.5039  160.1396 H       1  UNL1        0.1531
     20 C         148.4441  141.7895  155.6092 C.3     1  UNL1        0.0311
     21 C         146.9538  141.7081  155.7589 C.ar    1  UNL1       -0.0206
     22 C         146.1608  140.7871  154.8796 C.ar    1  UNL1       -0.0042
     23 C         144.6706  140.7058  155.0294 C.ar    1  UNL1        0.0010
     24 C         143.9732  141.5454  156.0584 C.ar    1  UNL1        0.0147
     25 C         144.7662  142.4663  156.9376 C.ar    1  UNL1        0.0513
     26 C         146.2564  142.5477  156.7879 C.ar    1  UNL1        0.0105
     27 C         140.2379  140.1516  162.7113 C.ar    1  UNL1        0.0174
     28 C         140.6067  138.6980  162.6775 C.ar    1  UNL1        0.0015
     29 C         139.5549  137.6635  162.4066 C.ar    1  UNL1        0.0000
     30 C         138.1343  138.0825  162.1694 C.ar    1  UNL1        0.0000
     31 C         137.7654  139.5359  162.2032 C.ar    1  UNL1        0.0000
     32 C         138.8171  140.5706  162.4741 C.ar    1  UNL1        0.0015
@<TRIPOS>BOND
     1    20    21    1
     2    21    22   ar
     3    22    23   ar
     4    23    24   ar
     5    24    25   ar
     6    25    14    1
     7    14    15   am
     8    15    16    2
     9    15    17   am
    10     1    17    1
    11     1     2    1
    12     2     3    2
    13     3    27    1
    14    27    28   ar
    15    28    29   ar
    16    29    30   ar
    17    30    31   ar
    18    31    32   ar
    19     3     4    1
    20     4     5   ar
    21     5     6   ar
    22     6     7   ar
    23     7     8   ar
    24     8     9   ar
    25     9    10    1
    26    10    11    1
    27    10    12   am
    28    12    13    2
    29    25    26   ar
    30    26    21   ar
    31    12     1    1
    32    32    27   ar
    33     9     4   ar
    34    14    18    1
    35    17    19    1
@<TRIPOS>MOLECULE
*****
 32 35 0 0 0
SMALL
GASTEIGER

@<TRIPOS>ATOM
      1 C         139.9245  139.8138  162.7021 C.3     1  UNL1        0.2563
      2 N         140.7529  141.0272  163.0045 N.2     1  UNL1       -0.2434
      3 C         141.0456  141.6515  164.3366 C.2     1  UNL1        0.0795
      4 C         140.5823  141.2166  165.6954 C.ar    1  UNL1        0.0310
      5 C         141.1056  142.1239  166.7692 C.ar    1  UNL1        0.0027
      6 C         140.7583  141.8645  168.2052 C.ar    1  UNL1        0.0001
      7 C         139.8879  140.6979  168.5674 C.ar    1  UNL1        0.0013
      8 C         139.3646  139.7906  167.4936 C.ar    1  UNL1        0.0149
      9 C         139.7119  140.0499  166.0576 C.ar    1  UNL1        0.0554
     10 N         139.0897  139.0301  165.1505 N.am    1  UNL1       -0.2538
     11 C         138.2637  137.9759  165.8261 C.3     1  UNL1        0.1201
     12 C         139.1843  138.9249  163.6572 C.2     1  UNL1        0.2712
     13 O         138.4404  137.7796  163.0369 O.2     1  UNL1       -0.2705
     14 N         139.0735  140.0051  158.8306 N.am    1  UNL1       -0.2683
     15 C         139.1751  140.3792  160.2796 C.2     1  UNL1        0.3061
     16 O         138.6289  141.6928  160.7552 O.2     1  UNL1       -0.2524
     17 N         139.8229  139.4397  161.2531 N.am    1  UNL1       -0.2638
     18 H         139.4320  139.1430  158.5184 H       1  UNL1        0.1564
     19 H         140.1814  138.5775  160.9410 H       1  UNL1        0.1531
     20 C         135.1308  141.1838  155.6579 C.3     1  UNL1        0.0311
     21 C         136.4543  141.5340  156.2708 C.ar    1  UNL1       -0.0206
     22 C         137.1301  142.8237  155.9101 C.ar    1  UNL1       -0.0042
     23 C         138.4536  143.1739  156.5230 C.ar    1  UNL1        0.0010
     24 C         139.1014  142.2344  157.4965 C.ar    1  UNL1        0.0147
     25 C         138.4257  140.9447  157.8571 C.ar    1  UNL1        0.0513
     26 C         137.1021  140.5945  157.2442 C.ar    1  UNL1        0.0105
     27 C         141.9169  142.8721  164.3059 C.ar    1  UNL1        0.0174
     28 C         141.3491  144.1879  163.8626 C.ar    1  UNL1        0.0015
     29 C         142.2204  145.4086  163.8319 C.ar    1  UNL1        0.0000
     30 C         143.6594  145.3135  164.2446 C.ar    1  UNL1        0.0000
     31 C         144.2271  143.9978  164.6879 C.ar    1  UNL1        0.0000
     32 C         143.3559  142.7771  164.7186 C.ar    1  UNL1        0.0015
@<TRIPOS>BOND
     1    20    21    1
     2    21    22   ar
     3    22    23   ar
     4    23    24   ar
     5    24    25   ar
     6    25    14    1
     7    14    15   am
     8    15    16    2
     9    15    17   am
    10     1    17    1
    11     1     2    1
    12     2     3    2
    13     3    27    1
    14    27    28   ar
    15    28    29   ar
    16    29    30   ar
    17    30    31   ar
    18    31    32   ar
    19     3     4    1
    20     4     5   ar
    21     5     6   ar
    22     6     7   ar
    23     7     8   ar
    24     8     9   ar
    25     9    10    1
    26    10    11    1
    27    10    12   am
    28    12    13    2
    29    25    26   ar
    30    26    21   ar
    31    12     1    1
    32    32    27   ar
    33     9     4   ar
    34    14    18    1
    35    17    19    1
@<TRIPOS>MOLECULE
*****
 32 35 0 0 0
SMALL
GASTEIGER

@<TRIPOS>ATOM
      1 C         140.9548  144.0224  161.2435 C.3     1  UNL1        0.2563
      2 N         141.6415  142.6888  161.2546 N.2     1  UNL1       -0.2434
      3 C         141.2931  141.4641  162.0476 C.2     1  UNL1        0.0795
      4 C         140.1720  141.2704  163.0251 C.ar    1  UNL1        0.0310
      5 C         140.1799  139.8853  163.6006 C.ar    1  UNL1        0.0027
      6 C         139.1382  139.4833  164.6022 C.ar    1  UNL1        0.0001
      7 C         138.0885  140.4666  165.0283 C.ar    1  UNL1        0.0013
      8 C         138.0806  141.8517  164.4528 C.ar    1  UNL1        0.0149
      9 C         139.1224  142.2536  163.4512 C.ar    1  UNL1        0.0554
     10 N         138.9347  143.6734  163.0049 N.am    1  UNL1       -0.2538
     11 C         137.7785  144.4023  163.6229 C.3     1  UNL1        0.1201
     12 C         139.7501  144.4606  162.0224 C.2     1  UNL1        0.2712
     13 O         139.3017  145.8726  161.7878 O.2     1  UNL1       -0.2705
     14 N         141.8550  146.0484  157.9519 N.am    1  UNL1       -0.2683
     15 C         141.2581  145.0166  158.8624 C.2     1  UNL1        0.3061
     16 O         140.3676  143.9473  158.3024 O.2     1  UNL1       -0.2524
     17 N         141.5517  145.0542  160.3329 N.am    1  UNL1       -0.2638
     18 H         142.4395  146.7503  158.3194 H       1  UNL1        0.1564
     19 H         142.1362  145.7560  160.7004 H       1  UNL1        0.1531
     20 C         143.0108  144.3646  153.1739 C.3     1  UNL1        0.0311
     21 C         142.1393  145.1690  154.0924 C.ar    1  UNL1       -0.0206
     22 C         140.9743  145.9358  153.5403 C.ar    1  UNL1       -0.0042
     23 C         140.1028  146.7401  154.4588 C.ar    1  UNL1        0.0010
     24 C         140.3964  146.7777  155.9293 C.ar    1  UNL1        0.0147
     25 C         141.5614  146.0109  156.4813 C.ar    1  UNL1        0.0513
     26 C         142.4329  145.2066  155.5629 C.ar    1  UNL1        0.0105
     27 C         142.1836  140.2759  161.8348 C.ar    1  UNL1        0.0174
     28 C         143.3825  140.0705  162.7125 C.ar    1  UNL1        0.0015
     29 C         144.2730  138.8823  162.4998 C.ar    1  UNL1        0.0000
     30 C         143.9646  137.8996  161.4092 C.ar    1  UNL1        0.0000
     31 C         142.7657  138.1050  160.5316 C.ar    1  UNL1        0.0000
     32 C         141.8752  139.2932  160.7443 C.ar    1  UNL1        0.0015
@<TRIPOS>BOND
     1    20    21    1
     2    21    22   ar
     3    22    23   ar
     4    23    24   ar
     5    24    25   ar
     6    25    14    1
     7    14    15   am
     8    15    16    2
     9    15    17   am
    10     1    17    1
    11     1     2    1
    12     2     3    2
    13     3    27    1
    14    27    28   ar
    15    28    29   ar
    16    29    30   ar
    17    30    31   ar
    18    31    32   ar
    19     3     4    1
    20     4     5   ar
    21     5     6   ar
    22     6     7   ar
    23     7     8   ar
    24     8     9   ar
    25     9    10    1
    26    10    11    1
    27    10    12   am
    28    12    13    2
    29    25    26   ar
    30    26    21   ar
    31    12     1    1
    32    32    27   ar
    33     9     4   ar
    34    14    18    1
    35    17    19    1
@<TRIPOS>MOLECULE
*****
 32 35 0 0 0
SMALL
GASTEIGER

@<TRIPOS>ATOM
      1 C         142.5542  141.9509  161.0711 C.3     1  UNL1        0.2563
      2 N         141.5159  142.5448  161.9763 N.2     1  UNL1       -0.2434
      3 C         140.7106  141.8686  163.0459 C.2     1  UNL1        0.0795
      4 C         140.7445  140.4315  163.4746 C.ar    1  UNL1        0.0310
      5 C         139.7728  140.1683  164.5865 C.ar    1  UNL1        0.0027
      6 C         139.6489  138.7892  165.1633 C.ar    1  UNL1        0.0001
      7 C         140.4966  137.6734  164.6282 C.ar    1  UNL1        0.0013
      8 C         141.4683  137.9367  163.5163 C.ar    1  UNL1        0.0149
      9 C         141.5923  139.3157  162.9395 C.ar    1  UNL1        0.0554
     10 N         142.6154  139.3615  161.8435 N.am    1  UNL1       -0.2538
     11 C         143.3011  138.0627  161.5388 C.3     1  UNL1        0.1201
     12 C         143.0436  140.5342  161.0120 C.2     1  UNL1        0.2712
     13 O         144.1007  140.2531  159.9857 O.2     1  UNL1       -0.2705
     14 N         143.0223  144.3788  157.9669 N.am    1  UNL1       -0.2683
     15 C         142.3897  143.4306  158.9419 C.2     1  UNL1        0.3061
     16 O         140.9599  143.0138  158.7627 O.2     1  UNL1       -0.2524
     17 N         143.1868  142.8992  160.0961 N.am    1  UNL1       -0.2638
     18 H         143.9607  144.6524  158.0845 H       1  UNL1        0.1564
     19 H         144.1252  143.1727  160.2137 H       1  UNL1        0.1531
     20 C         139.1961  147.3862  156.1461 C.3     1  UNL1        0.0311
     21 C         140.3120  146.4140  155.9023 C.ar    1  UNL1       -0.0206
     22 C         140.6307  145.9732  154.5044 C.ar    1  UNL1       -0.0042
     23 C         141.7467  145.0009  154.2606 C.ar    1  UNL1        0.0010
     24 C         142.5439  144.4695  155.4149 C.ar    1  UNL1        0.0147
     25 C         142.2251  144.9103  156.8127 C.ar    1  UNL1        0.0513
     26 C         141.1092  145.8825  157.0564 C.ar    1  UNL1        0.0105
     27 C         139.7433  142.7454  163.7846 C.ar    1  UNL1        0.0174
     28 C         140.1921  143.4976  165.0023 C.ar    1  UNL1        0.0015
     29 C         139.2248  144.3744  165.7410 C.ar    1  UNL1        0.0000
     30 C         137.8088  144.4990  165.2619 C.ar    1  UNL1        0.0000
     31 C         137.3601  143.7468  164.0443 C.ar    1  UNL1        0.0000
     32 C         138.3273  142.8700  163.3056 C.ar    1  UNL1        0.0015
@<TRIPOS>BOND
     1    20    21    1
     2    21    22   ar
     3    22    23   ar
     4    23    24   ar
     5    24    25   ar
     6    25    14    1
     7    14    15   am
     8    15    16    2
     9    15    17   am
    10     1    17    1
    11     1     2    1
    12     2     3    2
    13     3    27    1
    14    27    28   ar
    15    28    29   ar
    16    29    30   ar
    17    30    31   ar
    18    31    32   ar
    19     3     4    1
    20     4     5   ar
    21     5     6   ar
    22     6     7   ar
    23     7     8   ar
    24     8     9   ar
    25     9    10    1
    26    10    11    1
    27    10    12   am
    28    12    13    2
    29    25    26   ar
    30    26    21   ar
    31    12     1    1
    32    32    27   ar
    33     9     4   ar
    34    14    18    1
    35    17    19    1
@<TRIPOS>MOLECULE
*****
 32 35 0 0 0
SMALL
GASTEIGER

@<TRIPOS>ATOM
      1 C         142.7550  140.3507  163.1475 C.3     1  UNL1        0.2563
      2 N         141.6095  141.2625  163.4738 N.2     1  UNL1       -0.2434
      3 C         140.9465  141.4935  164.7993 C.2     1  UNL1        0.0795
      4 C         141.2652  140.8700  166.1259 C.ar    1  UNL1        0.0310
      5 C         140.3556  141.3803  167.2039 C.ar    1  UNL1        0.0027
      6 C         140.5065  140.8819  168.6106 C.ar    1  UNL1        0.0001
      7 C         141.5669  139.8732  168.9392 C.ar    1  UNL1        0.0013
      8 C         142.4765  139.3629  167.8612 C.ar    1  UNL1        0.0149
      9 C         142.3256  139.8613  166.4545 C.ar    1  UNL1        0.0554
     10 N         143.3293  139.2271  165.5377 N.am    1  UNL1       -0.2538
     11 C         144.2657  138.2452  166.1773 C.3     1  UNL1        0.1201
     12 C         143.5204  139.4448  164.0660 C.2     1  UNL1        0.2712
     13 O         144.6226  138.6520  163.4285 O.2     1  UNL1       -0.2705
     14 N         142.8850  139.5143  159.2702 N.am    1  UNL1       -0.2683
     15 C         142.4469  139.5211  160.7048 C.2     1  UNL1        0.3061
     16 O         141.2627  138.7052  161.1312 O.2     1  UNL1       -0.2524
     17 N         143.1931  140.3438  161.7129 N.am    1  UNL1       -0.2638
     18 H         143.6622  140.0498  158.9903 H       1  UNL1        0.1564
     19 H         143.9703  140.8794  161.4330 H       1  UNL1        0.1531
     20 C         142.5145  135.2425  156.3351 C.3     1  UNL1        0.0311
     21 C         141.9535  136.5556  156.7945 C.ar    1  UNL1       -0.0206
     22 C         140.6464  137.0460  156.2458 C.ar    1  UNL1       -0.0042
     23 C         140.0854  138.3591  156.7053 C.ar    1  UNL1        0.0010
     24 C         140.8317  139.1819  157.7134 C.ar    1  UNL1        0.0147
     25 C         142.1388  138.6915  158.2620 C.ar    1  UNL1        0.0513
     26 C         142.6997  137.3784  157.8026 C.ar    1  UNL1        0.0105
     27 C         139.8152  142.4785  164.7982 C.ar    1  UNL1        0.0174
     28 C         138.4388  142.0392  164.3948 C.ar    1  UNL1        0.0015
     29 C         137.3074  143.0242  164.3937 C.ar    1  UNL1        0.0000
     30 C         137.5525  144.4483  164.7960 C.ar    1  UNL1        0.0000
     31 C         138.9288  144.8875  165.1993 C.ar    1  UNL1        0.0000
     32 C         140.0601  143.9027  165.2005 C.ar    1  UNL1        0.0015
@<TRIPOS>BOND
     1    20    21    1
     2    21    22   ar
     3    22    23   ar
     4    23    24   ar
     5    24    25   ar
     6    25    14    1
     7    14    15   am
     8    15    16    2
     9    15    17   am
    10     1    17    1
    11     1     2    1
    12     2     3    2
    13     3    27    1
    14    27    28   ar
    15    28    29   ar
    16    29    30   ar
    17    30    31   ar
    18    31    32   ar
    19     3     4    1
    20     4     5   ar
    21     5     6   ar
    22     6     7   ar
    23     7     8   ar
    24     8     9   ar
    25     9    10    1
    26    10    11    1
    27    10    12   am
    28    12    13    2
    29    25    26   ar
    30    26    21   ar
    31    12     1    1
    32    32    27   ar
    33     9     4   ar
    34    14    18    1
    35    17    19    1
@<TRIPOS>MOLECULE
*****
 32 35 0 0 0
SMALL
GASTEIGER

@<TRIPOS>ATOM
      1 C         141.1737  143.4672  158.9391 C.3     1  UNL1        0.2563
      2 N         140.4528  143.5507  160.2519 N.2     1  UNL1       -0.2434
      3 C         140.9897  143.3050  161.6308 C.2     1  UNL1        0.0795
      4 C         142.3799  142.9152  162.0376 C.ar    1  UNL1        0.0310
      5 C         142.4949  142.7697  163.5261 C.ar    1  UNL1        0.0027
      6 C         143.8066  142.3838  164.1428 C.ar    1  UNL1        0.0001
      7 C         145.0034  142.1434  163.2710 C.ar    1  UNL1        0.0013
      8 C         144.8884  142.2889  161.7826 C.ar    1  UNL1        0.0149
      9 C         143.5766  142.6748  161.1659 C.ar    1  UNL1        0.0554
     10 N         143.6787  142.7648  159.6720 N.am    1  UNL1       -0.2538
     11 C         145.0288  142.4622  159.0926 C.3     1  UNL1        0.1201
     12 C         142.6094  143.1175  158.6810 C.2     1  UNL1        0.2712
     13 O         143.0314  143.1208  157.2417 O.2     1  UNL1       -0.2705
     14 N         139.5457  145.4595  155.9175 N.am    1  UNL1       -0.2683
     15 C         140.3694  145.1527  157.1330 C.2     1  UNL1        0.3061
     16 O         141.2126  146.2245  157.7577 O.2     1  UNL1       -0.2524
     17 N         140.3500  143.7741  157.7237 N.am    1  UNL1       -0.2638
     18 H         138.9922  144.7561  155.5075 H       1  UNL1        0.1564
     19 H         139.7966  143.0706  157.3137 H       1  UNL1        0.1531
     20 C         141.1340  148.7502  152.2231 C.3     1  UNL1        0.0311
     21 C         140.3593  148.4835  153.4796 C.ar    1  UNL1       -0.0206
     22 C         139.6041  149.5955  154.1453 C.ar    1  UNL1       -0.0042
     23 C         138.8294  149.3288  155.4018 C.ar    1  UNL1        0.0010
     24 C         138.8099  147.9501  155.9925 C.ar    1  UNL1        0.0147
     25 C         139.5651  146.8382  155.3268 C.ar    1  UNL1        0.0513
     26 C         140.3398  147.1049  154.0703 C.ar    1  UNL1        0.0105
     27 C         140.0062  143.4712  162.7512 C.ar    1  UNL1        0.0174
     28 C         139.0295  142.3755  163.0605 C.ar    1  UNL1        0.0015
     29 C         138.0461  142.5416  164.1809 C.ar    1  UNL1        0.0000
     30 C         138.0394  143.8034  164.9920 C.ar    1  UNL1        0.0000
     31 C         139.0160  144.8989  164.6828 C.ar    1  UNL1        0.0000
     32 C         139.9995  144.7329  163.5625 C.ar    1  UNL1        0.0015
@<TRIPOS>BOND
     1    20    21    1
     2    21    22   ar
     3    22    23   ar
     4    23    24   ar
     5    24    25   ar
     6    25    14    1
     7    14    15   am
     8    15    16    2
     9    15    17   am
    10     1    17    1
    11     1     2    1
    12     2     3    2
    13     3    27    1
    14    27    28   ar
    15    28    29   ar
    16    29    30   ar
    17    30    31   ar
    18    31    32   ar
    19     3     4    1
    20     4     5   ar
    21     5     6   ar
    22     6     7   ar
    23     7     8   ar
    24     8     9   ar
    25     9    10    1
    26    10    11    1
    27    10    12   am
    28    12    13    2
    29    25    26   ar
    30    26    21   ar
    31    12     1    1
    32    32    27   ar
    33     9     4   ar
    34    14    18    1
    35    17    19    1
@<TRIPOS>MOLECULE
*****
 32 35 0 0 0
SMALL
GASTEIGER

@<TRIPOS>ATOM
      1 C         139.9342  139.7365  162.0126 C.3     1  UNL1        0.2563
      2 N         140.7417  140.9669  162.3028 N.2     1  UNL1       -0.2434
      3 C         141.1322  141.5367  163.6342 C.2     1  UNL1        0.0795
      4 C         140.8118  141.0169  165.0044 C.ar    1  UNL1        0.0310
      5 C         141.3977  141.8914  166.0730 C.ar    1  UNL1        0.0027
      6 C         141.1933  141.5478  167.5188 C.ar    1  UNL1        0.0001
      7 C         140.4032  140.3298  167.8958 C.ar    1  UNL1        0.0013
      8 C         139.8174  139.4554  166.8271 C.ar    1  UNL1        0.0149
      9 C         140.0217  139.7989  165.3814 C.ar    1  UNL1        0.0554
     10 N         139.3569  138.7999  164.4814 N.am    1  UNL1       -0.2538
     11 C         138.6355  137.6806  165.1721 C.3     1  UNL1        0.1201
     12 C         139.3179  138.7720  162.9822 C.2     1  UNL1        0.2712
     13 O         138.5628  137.6287  162.3719 O.2     1  UNL1       -0.2705
     14 N         140.6560  138.7547  158.2357 N.am    1  UNL1       -0.2683
     15 C         140.8763  139.0612  159.6874 C.2     1  UNL1        0.3061
     16 O         142.2590  138.9989  160.2657 O.2     1  UNL1       -0.2524
     17 N         139.7140  139.4300  160.5609 N.am    1  UNL1       -0.2638
     18 H         139.7485  138.7956  157.8561 H       1  UNL1        0.1564
     19 H         138.8065  139.4709  160.1813 H       1  UNL1        0.1531
     20 C         143.7244  135.1342  156.1197 C.3     1  UNL1        0.0311
     21 C         143.3526  136.5756  156.3043 C.ar    1  UNL1       -0.0206
     22 C         144.1432  137.6482  155.6154 C.ar    1  UNL1       -0.0042
     23 C         143.7714  139.0896  155.8000 C.ar    1  UNL1        0.0010
     24 C         142.6090  139.4584  156.6735 C.ar    1  UNL1        0.0147
     25 C         141.8184  138.3859  157.3623 C.ar    1  UNL1        0.0513
     26 C         142.1902  136.9444  157.1777 C.ar    1  UNL1        0.0105
     27 C         141.9516  142.7923  163.5897 C.ar    1  UNL1        0.0174
     28 C         143.4300  142.7150  163.3479 C.ar    1  UNL1        0.0015
     29 C         144.2493  143.9707  163.3034 C.ar    1  UNL1        0.0000
     30 C         143.5903  145.3037  163.5006 C.ar    1  UNL1        0.0000
     31 C         142.1120  145.3810  163.7423 C.ar    1  UNL1        0.0000
     32 C         141.2926  144.1254  163.7869 C.ar    1  UNL1        0.0015
@<TRIPOS>BOND
     1    20    21    1
     2    21    22   ar
     3    22    23   ar
     4    23    24   ar
     5    24    25   ar
     6    25    14    1
     7    14    15   am
     8    15    16    2
     9    15    17   am
    10     1    17    1
    11     1     2    1
    12     2     3    2
    13     3    27    1
    14    27    28   ar
    15    28    29   ar
    16    29    30   ar
    17    30    31   ar
    18    31    32   ar
    19     3     4    1
    20     4     5   ar
    21     5     6   ar
    22     6     7   ar
    23     7     8   ar
    24     8     9   ar
    25     9    10    1
    26    10    11    1
    27    10    12   am
    28    12    13    2
    29    25    26   ar
    30    26    21   ar
    31    12     1    1
    32    32    27   ar
    33     9     4   ar
    34    14    18    1
    35    17    19    1
@<TRIPOS>MOLECULE
*****
 32 35 0 0 0
SMALL
GASTEIGER

@<TRIPOS>ATOM
      1 C         140.8902  142.0153  162.0744 C.3     1  UNL1        0.2563
      2 N         140.1999  141.1266  163.0663 N.2     1  UNL1       -0.2434
      3 C         140.8105  140.1915  164.0677 C.2     1  UNL1        0.0795
      4 C         142.2621  139.9141  164.3245 C.ar    1  UNL1        0.0310
      5 C         142.4417  138.9053  165.4200 C.ar    1  UNL1        0.0027
      6 C         143.8209  138.4857  165.8343 C.ar    1  UNL1        0.0001
      7 C         145.0205  139.0749  165.1532 C.ar    1  UNL1        0.0013
      8 C         144.8408  140.0837  164.0577 C.ar    1  UNL1        0.0149
      9 C         143.4616  140.5033  163.6434 C.ar    1  UNL1        0.0554
     10 N         143.5058  141.5154  162.5372 N.am    1  UNL1       -0.2538
     11 C         144.8756  141.9063  162.0671 C.3     1  UNL1        0.1201
     12 C         142.3615  142.1883  161.8389 C.2     1  UNL1        0.2712
     13 O         142.7381  143.1631  160.7629 O.2     1  UNL1       -0.2705
     14 N         138.7456  143.1926  158.9496 N.am    1  UNL1       -0.2683
     15 C         139.6456  142.3679  159.8213 C.2     1  UNL1        0.3061
     16 O         140.2012  141.0712  159.3114 O.2     1  UNL1       -0.2524
     17 N         139.9902  142.8400  161.2027 N.am    1  UNL1       -0.2638
     18 H         138.3810  144.0437  159.2841 H       1  UNL1        0.1564
     19 H         139.6256  143.6911  161.5373 H       1  UNL1        0.1531
     20 C         139.3884  143.4892  153.8018 C.3     1  UNL1        0.0311
     21 C         138.7225  142.8688  154.9942 C.ar    1  UNL1       -0.0206
     22 C         137.7121  141.7764  154.8051 C.ar    1  UNL1       -0.0042
     23 C         137.0462  141.1560  155.9974 C.ar    1  UNL1        0.0010
     24 C         137.3907  141.6281  157.3789 C.ar    1  UNL1        0.0147
     25 C         138.4011  142.7205  157.5680 C.ar    1  UNL1        0.0513
     26 C         139.0670  143.3409  156.3757 C.ar    1  UNL1        0.0105
     27 C         139.8413  139.4336  164.9257 C.ar    1  UNL1        0.0174
     28 C         139.4205  138.0472  164.5370 C.ar    1  UNL1        0.0015
     29 C         138.4514  137.2893  165.3950 C.ar    1  UNL1        0.0000
     30 C         137.9029  137.9177  166.6418 C.ar    1  UNL1        0.0000
     31 C         138.3236  139.3040  167.0305 C.ar    1  UNL1        0.0000
     32 C         139.2928  140.0620  166.1725 C.ar    1  UNL1        0.0015
@<TRIPOS>BOND
     1    20    21    1
     2    21    22   ar
     3    22    23   ar
     4    23    24   ar
     5    24    25   ar
     6    25    14    1
     7    14    15   am
     8    15    16    2
     9    15    17   am
    10     1    17    1
    11     1     2    1
    12     2     3    2
    13     3    27    1
    14    27    28   ar
    15    28    29   ar
    16    29    30   ar
    17    30    31   ar
    18    31    32   ar
    19     3     4    1
    20     4     5   ar
    21     5     6   ar
    22     6     7   ar
    23     7     8   ar
    24     8     9   ar
    25     9    10    1
    26    10    11    1
    27    10    12   am
    28    12    13    2
    29    25    26   ar
    30    26    21   ar
    31    12     1    1
    32    32    27   ar
    33     9     4   ar
    34    14    18    1
    35    17    19    1
