@<TRIPOS>MOLECULE
*****
 37 41 0 0 0
SMALL
GASTEIGER

@<TRIPOS>ATOM
      1 C         144.3491  140.7255  163.4800 C.2     1  UNL1        0.2494
      2 O         145.4692  141.7120  163.3310 O.2     1  UNL1       -0.2699
      3 N         143.7580  140.0727  162.2658 N.am    1  UNL1       -0.2660
      4 C         142.6379  139.0863  162.4148 C.3     1  UNL1        0.1160
      5 C         142.0468  138.4335  161.2005 C.3     1  UNL1        0.1197
      6 N         142.5760  138.7671  159.8372 N.am    1  UNL1       -0.2555
      7 C         143.6961  139.7536  159.6881 C.2     1  UNL1        0.2497
      8 O         144.2252  140.0872  158.3248 O.2     1  UNL1       -0.2727
      9 C         144.2872  140.4064  160.9024 C.3     1  UNL1        0.1799
     10 C         142.7618  139.7247  167.5701 C.ar    1  UNL1        0.0536
     11 C         143.3448  138.6452  166.7071 C.ar    1  UNL1        0.0047
     12 C         143.8739  138.9789  165.3438 C.ar    1  UNL1        0.0047
     13 C         143.8200  140.3919  164.8435 C.ar    1  UNL1        0.0536
     14 C         143.2370  141.4714  165.7065 C.ar    1  UNL1        0.0047
     15 C         142.7079  141.1377  167.0698 C.ar    1  UNL1        0.0047
     16 O         143.0459  138.5440  169.8670 O.2     1  UNL1       -0.2699
     17 C         142.2327  139.3910  168.9335 C.2     1  UNL1        0.2490
     18 N         140.8905  139.9045  169.3634 N.am    1  UNL1       -0.2760
     19 C         139.8255  140.7495  168.7298 C.3     1  UNL1        0.0955
     20 C         138.9923  140.6306  169.9714 C.3     1  UNL1        0.0430
     21 C         140.0574  139.7855  170.6051 C.3     1  UNL1        0.0955
     22 C         141.9849  138.1143  158.6229 C.ar    1  UNL1        0.0541
     23 C         140.5693  138.4115  158.2257 C.ar    1  UNL1        0.0180
     24 C         139.9783  137.7586  157.0114 C.ar    1  UNL1        0.0382
     25 C         140.8029  136.8087  156.1943 C.ar    1  UNL1        0.1386
     26 C         142.2185  136.5115  156.5915 C.ar    1  UNL1        0.0382
     27 C         142.8095  137.1643  157.8058 C.ar    1  UNL1        0.0180
     28 O         140.2118  136.1558  154.9801 O.3     1  UNL1       -0.4754
     29 C         141.1062  135.4944  153.9738 C.3     1  UNL1        0.2068
     30 C         141.2486  134.0012  153.9639 C.3     1  UNL1        0.0646
     31 C         141.2877  133.2429  155.2576 C.3     1  UNL1        0.0759
     32 N         142.5909  132.7114  155.7762 N.3     1  UNL1       -0.2726
     33 C         143.1539  133.2328  157.0651 C.3     1  UNL1        0.0721
     34 C         144.4571  132.7012  157.5838 C.3     1  UNL1        0.0174
     35 C         145.1974  131.6482  156.8136 C.3     1  UNL1        0.0029
     36 C         144.6344  131.1267  155.5248 C.3     1  UNL1        0.0174
     37 C         143.3312  131.6583  155.0061 C.3     1  UNL1        0.0721
@<TRIPOS>BOND
     1    16    17    2
     2    17    10    1
     3    10    11   ar
     4    11    12   ar
     5    12    13   ar
     6    13     1    1
     7     1     2    2
     8     1     3   am
     9     3     4    1
    10     4     5    1
    11     5     6    1
    12     6    22    1
    13    22    23   ar
    14    23    24   ar
    15    24    25   ar
    16    25    28    1
    17    28    29    1
    18    29    30    1
    19    30    31    1
    20    31    32    1
    21    32    33    1
    22    33    34    1
    23    34    35    1
    24    35    36    1
    25    36    37    1
    26    25    26   ar
    27    26    27   ar
    28     6     7   am
    29     7     8    2
    30     7     9    1
    31    13    14   ar
    32    14    15   ar
    33    17    18   am
    34    18    19    1
    35    19    20    1
    36    20    21    1
    37    15    10   ar
    38    21    18    1
    39     9     3    1
    40    27    22   ar
    41    37    32    1
@<TRIPOS>MOLECULE
*****
 37 41 0 0 0
SMALL
GASTEIGER

@<TRIPOS>ATOM
      1 C         142.3146  138.8303  157.1681 C.2     1  UNL1        0.2494
      2 O         142.1040  140.1201  156.4319 O.2     1  UNL1       -0.2699
      3 N         142.4545  138.8334  158.6616 N.am    1  UNL1       -0.2660
      4 C         142.6651  137.5436  159.3978 C.3     1  UNL1        0.1160
      5 C         142.8050  137.5468  160.8913 C.3     1  UNL1        0.1197
      6 N         142.7343  138.8397  161.6485 N.am    1  UNL1       -0.2555
      7 C         142.5237  140.1295  160.9122 C.2     1  UNL1        0.2497
      8 O         142.4530  141.4224  161.6694 O.2     1  UNL1       -0.2727
      9 C         142.3838  140.1264  159.4188 C.3     1  UNL1        0.1799
     10 C         142.5266  134.9516  154.8965 C.ar    1  UNL1        0.0536
     11 C         141.2010  135.4760  155.3629 C.ar    1  UNL1        0.0047
     12 C         141.1303  136.7689  156.1201 C.ar    1  UNL1        0.0047
     13 C         142.3853  137.5373  156.4109 C.ar    1  UNL1        0.0536
     14 C         143.7109  137.0128  155.9445 C.ar    1  UNL1        0.0047
     15 C         143.7816  135.7200  155.1873 C.ar    1  UNL1        0.0047
     16 O         141.8862  133.5188  152.8259 O.2     1  UNL1       -0.2699
     17 C         142.5973  133.6586  154.1393 C.2     1  UNL1        0.2490
     18 N         143.3790  132.5055  154.6953 N.am    1  UNL1       -0.2760
     19 C         144.1933  132.2751  155.9339 C.3     1  UNL1        0.0955
     20 C         144.4846  130.8748  155.4818 C.3     1  UNL1        0.0430
     21 C         143.6704  131.1053  154.2433 C.3     1  UNL1        0.0955
     22 C         142.8742  138.8428  163.1419 C.ar    1  UNL1        0.0541
     23 C         141.7070  138.4658  164.0054 C.ar    1  UNL1        0.0180
     24 C         141.8470  138.4689  165.4989 C.ar    1  UNL1        0.0382
     25 C         143.1540  138.8491  166.1289 C.ar    1  UNL1        0.1386
     26 C         144.3212  139.2261  165.2654 C.ar    1  UNL1        0.0382
     27 C         144.1813  139.2230  163.7720 C.ar    1  UNL1        0.0180
     28 O         143.2939  138.8522  167.6223 O.3     1  UNL1       -0.4754
     29 C         142.7118  139.9757  168.4278 C.3     1  UNL1        0.2068
     30 C         141.4952  139.7405  169.2733 C.3     1  UNL1        0.0646
     31 C         140.2295  140.4948  168.9925 C.3     1  UNL1        0.0759
     32 N         139.5812  140.3962  167.6435 N.3     1  UNL1       -0.2726
     33 C         138.6522  139.2586  167.3391 C.3     1  UNL1        0.0721
     34 C         138.0039  139.1601  165.9899 C.3     1  UNL1        0.0174
     35 C         138.2847  140.1992  164.9452 C.3     1  UNL1        0.0029
     36 C         139.2138  141.3369  165.2497 C.3     1  UNL1        0.0174
     37 C         139.8620  141.4354  166.5987 C.3     1  UNL1        0.0721
@<TRIPOS>BOND
     1    16    17    2
     2    17    10    1
     3    10    11   ar
     4    11    12   ar
     5    12    13   ar
     6    13     1    1
     7     1     2    2
     8     1     3   am
     9     3     4    1
    10     4     5    1
    11     5     6    1
    12     6    22    1
    13    22    23   ar
    14    23    24   ar
    15    24    25   ar
    16    25    28    1
    17    28    29    1
    18    29    30    1
    19    30    31    1
    20    31    32    1
    21    32    33    1
    22    33    34    1
    23    34    35    1
    24    35    36    1
    25    36    37    1
    26    25    26   ar
    27    26    27   ar
    28     6     7   am
    29     7     8    2
    30     7     9    1
    31    13    14   ar
    32    14    15   ar
    33    17    18   am
    34    18    19    1
    35    19    20    1
    36    20    21    1
    37    15    10   ar
    38    21    18    1
    39     9     3    1
    40    27    22   ar
    41    37    32    1
@<TRIPOS>MOLECULE
*****
 37 41 0 0 0
SMALL
GASTEIGER

@<TRIPOS>ATOM
      1 C         140.3906  138.1877  164.0141 C.2     1  UNL1        0.2494
      2 O         141.0182  136.8316  163.8839 O.2     1  UNL1       -0.2699
      3 N         139.9615  138.9365  162.7873 N.am    1  UNL1       -0.2660
      4 C         139.3339  140.2926  162.9175 C.3     1  UNL1        0.1160
      5 C         138.9047  141.0414  161.6906 C.3     1  UNL1        0.1197
      6 N         139.1031  140.4339  160.3335 N.am    1  UNL1       -0.2555
      7 C         139.7307  139.0778  160.2033 C.2     1  UNL1        0.2497
      8 O         139.9291  138.4704  158.8463 O.2     1  UNL1       -0.2727
      9 C         140.1599  138.3291  161.4301 C.3     1  UNL1        0.1799
     10 C         139.7956  140.0099  168.0854 C.ar    1  UNL1        0.0536
     11 C         141.1575  140.0069  167.4569 C.ar    1  UNL1        0.0047
     12 C         141.3558  139.3995  166.0998 C.ar    1  UNL1        0.0047
     13 C         140.1923  138.7951  165.3712 C.ar    1  UNL1        0.0536
     14 C         138.8303  138.7982  165.9998 C.ar    1  UNL1        0.0047
     15 C         138.6320  139.4056  167.3568 C.ar    1  UNL1        0.0047
     16 O         139.1016  139.7713  170.5777 O.2     1  UNL1       -0.2699
     17 C         139.5972  140.6173  169.4425 C.2     1  UNL1        0.2490
     18 N         139.8943  142.0707  169.6644 N.am    1  UNL1       -0.2760
     19 C         140.3878  143.1959  168.8039 C.3     1  UNL1        0.0955
     20 C         140.3146  144.1262  169.9783 C.3     1  UNL1        0.0430
     21 C         139.8212  143.0010  170.8388 C.3     1  UNL1        0.0955
     22 C         138.6739  141.1827  159.1067 C.ar    1  UNL1        0.0541
     23 C         139.3430  142.4754  158.7445 C.ar    1  UNL1        0.0180
     24 C         138.9138  143.2241  157.5176 C.ar    1  UNL1        0.0382
     25 C         137.8154  142.6802  156.6530 C.ar    1  UNL1        0.1386
     26 C         137.1463  141.3875  157.0151 C.ar    1  UNL1        0.0382
     27 C         137.5755  140.6387  158.2420 C.ar    1  UNL1        0.0180
     28 O         137.3863  143.4289  155.4262 O.3     1  UNL1       -0.4754
     29 C         138.3535  144.3350  154.7238 C.3     1  UNL1        0.2068
     30 C         138.1802  145.8229  154.8029 C.3     1  UNL1        0.0646
     31 C         138.9699  146.6180  155.7999 C.3     1  UNL1        0.0759
     32 N         139.0100  148.1144  155.7033 N.3     1  UNL1       -0.2726
     33 C         139.5523  148.7719  154.4690 C.3     1  UNL1        0.0721
     34 C         139.5924  150.2683  154.3723 C.3     1  UNL1        0.0174
     35 C         139.0902  151.1071  155.5100 C.3     1  UNL1        0.0029
     36 C         138.5479  150.4495  156.7443 C.3     1  UNL1        0.0174
     37 C         138.5078  148.9532  156.8409 C.3     1  UNL1        0.0721
@<TRIPOS>BOND
     1    16    17    2
     2    17    10    1
     3    10    11   ar
     4    11    12   ar
     5    12    13   ar
     6    13     1    1
     7     1     2    2
     8     1     3   am
     9     3     4    1
    10     4     5    1
    11     5     6    1
    12     6    22    1
    13    22    23   ar
    14    23    24   ar
    15    24    25   ar
    16    25    28    1
    17    28    29    1
    18    29    30    1
    19    30    31    1
    20    31    32    1
    21    32    33    1
    22    33    34    1
    23    34    35    1
    24    35    36    1
    25    36    37    1
    26    25    26   ar
    27    26    27   ar
    28     6     7   am
    29     7     8    2
    30     7     9    1
    31    13    14   ar
    32    14    15   ar
    33    17    18   am
    34    18    19    1
    35    19    20    1
    36    20    21    1
    37    15    10   ar
    38    21    18    1
    39     9     3    1
    40    27    22   ar
    41    37    32    1
@<TRIPOS>MOLECULE
*****
 37 41 0 0 0
SMALL
GASTEIGER

@<TRIPOS>ATOM
      1 C         138.0136  141.0329  163.2030 C.2     1  UNL1        0.2494
      2 O         136.7303  141.7852  163.0106 O.2     1  UNL1       -0.2699
      3 N         138.6991  140.4058  162.0255 N.am    1  UNL1       -0.2660
      4 C         139.9825  139.6535  162.2179 C.3     1  UNL1        0.1160
      5 C         140.6680  139.0263  161.0402 C.3     1  UNL1        0.1197
      6 N         140.0702  139.1514  159.6703 N.am    1  UNL1       -0.2555
      7 C         138.7868  139.9037  159.4779 C.2     1  UNL1        0.2497
      8 O         138.1889  140.0288  158.1079 O.2     1  UNL1       -0.2727
      9 C         138.1013  140.5309  160.6554 C.3     1  UNL1        0.1799
     10 C         139.8072  140.6578  167.3131 C.ar    1  UNL1        0.0536
     11 C         140.1194  141.8549  166.4650 C.ar    1  UNL1        0.0047
     12 C         139.5215  141.9800  165.0950 C.ar    1  UNL1        0.0047
     13 C         138.6115  140.9079  164.5731 C.ar    1  UNL1        0.0536
     14 C         138.2993  139.7107  165.4212 C.ar    1  UNL1        0.0047
     15 C         138.8972  139.5856  166.7912 C.ar    1  UNL1        0.0047
     16 O         139.7227  139.6977  169.7258 O.2     1  UNL1       -0.2699
     17 C         140.4051  140.5327  168.6831 C.2     1  UNL1        0.2490
     18 N         141.6853  141.2425  169.0104 N.am    1  UNL1       -0.2760
     19 C         142.6250  142.1364  168.2569 C.3     1  UNL1        0.0955
     20 C         143.4957  142.2465  169.4734 C.3     1  UNL1        0.0430
     21 C         142.5560  141.3526  170.2269 C.3     1  UNL1        0.0955
     22 C         140.7557  138.5242  158.4927 C.ar    1  UNL1        0.0541
     23 C         139.9789  137.6565  157.5473 C.ar    1  UNL1        0.0180
     24 C         140.6645  137.0293  156.3697 C.ar    1  UNL1        0.0382
     25 C         142.1268  137.2699  156.1376 C.ar    1  UNL1        0.1386
     26 C         142.9035  138.1376  157.0830 C.ar    1  UNL1        0.0382
     27 C         142.2180  138.7647  158.2605 C.ar    1  UNL1        0.0180
     28 O         142.8123  136.6427  154.9600 O.3     1  UNL1       -0.4754
     29 C         142.0672  135.6800  154.0836 C.3     1  UNL1        0.2068
     30 C         142.2607  134.2028  154.2581 C.3     1  UNL1        0.0646
     31 C         141.8388  133.5366  155.5341 C.3     1  UNL1        0.0759
     32 N         142.8384  132.7645  156.3432 N.3     1  UNL1       -0.2726
     33 C         143.9399  133.4862  157.0614 C.3     1  UNL1        0.0721
     34 C         144.9395  132.7140  157.8705 C.3     1  UNL1        0.0174
     35 C         144.8375  131.2203  157.9614 C.3     1  UNL1        0.0029
     36 C         143.7359  130.4986  157.2433 C.3     1  UNL1        0.0174
     37 C         142.7364  131.2707  156.4342 C.3     1  UNL1        0.0721
@<TRIPOS>BOND
     1    16    17    2
     2    17    10    1
     3    10    11   ar
     4    11    12   ar
     5    12    13   ar
     6    13     1    1
     7     1     2    2
     8     1     3   am
     9     3     4    1
    10     4     5    1
    11     5     6    1
    12     6    22    1
    13    22    23   ar
    14    23    24   ar
    15    24    25   ar
    16    25    28    1
    17    28    29    1
    18    29    30    1
    19    30    31    1
    20    31    32    1
    21    32    33    1
    22    33    34    1
    23    34    35    1
    24    35    36    1
    25    36    37    1
    26    25    26   ar
    27    26    27   ar
    28     6     7   am
    29     7     8    2
    30     7     9    1
    31    13    14   ar
    32    14    15   ar
    33    17    18   am
    34    18    19    1
    35    19    20    1
    36    20    21    1
    37    15    10   ar
    38    21    18    1
    39     9     3    1
    40    27    22   ar
    41    37    32    1
@<TRIPOS>MOLECULE
*****
 37 41 0 0 0
SMALL
GASTEIGER

@<TRIPOS>ATOM
      1 C         143.7452  137.0431  156.0201 C.2     1  UNL1        0.2494
      2 O         145.0159  137.4801  155.3535 O.2     1  UNL1       -0.2699
      3 N         142.9540  138.0192  156.8393 N.am    1  UNL1       -0.2660
      4 C         141.6833  137.5822  157.5059 C.3     1  UNL1        0.1160
      5 C         140.8920  138.5583  158.3251 C.3     1  UNL1        0.1197
      6 N         141.3714  139.9714  158.4777 N.am    1  UNL1       -0.2555
      7 C         142.6421  140.4084  157.8110 C.2     1  UNL1        0.2497
      8 O         143.1215  141.8215  157.9636 O.2     1  UNL1       -0.2727
      9 C         143.4334  139.4323  156.9919 C.3     1  UNL1        0.1799
     10 C         142.3070  132.8038  155.5622 C.ar    1  UNL1        0.0536
     11 C         142.1337  133.7802  154.4368 C.ar    1  UNL1        0.0047
     12 C         142.6131  135.1933  154.5895 C.ar    1  UNL1        0.0047
     13 C         143.2658  135.6299  155.8675 C.ar    1  UNL1        0.0536
     14 C         143.4391  134.6535  156.9929 C.ar    1  UNL1        0.0047
     15 C         142.9597  133.2404  156.8402 C.ar    1  UNL1        0.0047
     16 O         140.4516  131.1187  154.8779 O.2     1  UNL1       -0.2699
     17 C         141.8276  131.3906  155.4096 C.2     1  UNL1        0.2490
     18 N         142.7242  130.2494  155.7887 N.am    1  UNL1       -0.2760
     19 C         144.1156  130.1303  156.3362 C.3     1  UNL1        0.0955
     20 C         143.9921  128.6355  156.3249 C.3     1  UNL1        0.0430
     21 C         142.6007  128.7545  155.7774 C.3     1  UNL1        0.0955
     22 C         140.5802  140.9475  159.2969 C.ar    1  UNL1        0.0541
     23 C         139.2532  141.4406  158.8009 C.ar    1  UNL1        0.0180
     24 C         138.4619  142.4167  159.6202 C.ar    1  UNL1        0.0382
     25 C         138.9976  142.8997  160.9353 C.ar    1  UNL1        0.1386
     26 C         140.3246  142.4067  161.4313 C.ar    1  UNL1        0.0382
     27 C         141.1159  141.4306  160.6121 C.ar    1  UNL1        0.0180
     28 O         138.2063  143.8758  161.7545 O.3     1  UNL1       -0.4754
     29 C         137.8322  143.5392  163.1675 C.3     1  UNL1        0.2068
     30 C         137.2578  142.1917  163.4906 C.3     1  UNL1        0.0646
     31 C         138.0905  141.1753  164.2142 C.3     1  UNL1        0.0759
     32 N         138.7685  140.0784  163.4480 N.3     1  UNL1       -0.2726
     33 C         138.1074  139.4902  162.2368 C.3     1  UNL1        0.0721
     34 C         138.7855  138.3933  161.4706 C.3     1  UNL1        0.0174
     35 C         140.1246  137.8846  161.9156 C.3     1  UNL1        0.0029
     36 C         140.7856  138.4728  163.1268 C.3     1  UNL1        0.0174
     37 C         140.1076  139.5697  163.8930 C.3     1  UNL1        0.0721
@<TRIPOS>BOND
     1    16    17    2
     2    17    10    1
     3    10    11   ar
     4    11    12   ar
     5    12    13   ar
     6    13     1    1
     7     1     2    2
     8     1     3   am
     9     3     4    1
    10     4     5    1
    11     5     6    1
    12     6    22    1
    13    22    23   ar
    14    23    24   ar
    15    24    25   ar
    16    25    28    1
    17    28    29    1
    18    29    30    1
    19    30    31    1
    20    31    32    1
    21    32    33    1
    22    33    34    1
    23    34    35    1
    24    35    36    1
    25    36    37    1
    26    25    26   ar
    27    26    27   ar
    28     6     7   am
    29     7     8    2
    30     7     9    1
    31    13    14   ar
    32    14    15   ar
    33    17    18   am
    34    18    19    1
    35    19    20    1
    36    20    21    1
    37    15    10   ar
    38    21    18    1
    39     9     3    1
    40    27    22   ar
    41    37    32    1
@<TRIPOS>MOLECULE
*****
 37 41 0 0 0
SMALL
GASTEIGER

@<TRIPOS>ATOM
      1 C         144.3680  140.4834  163.6058 C.2     1  UNL1        0.2494
      2 O         145.7611  141.0081  163.4221 O.2     1  UNL1       -0.2699
      3 N         143.5058  140.2096  162.4094 N.am    1  UNL1       -0.2660
      4 C         142.1126  139.6849  162.5931 C.3     1  UNL1        0.1160
      5 C         141.2504  139.4112  161.3965 C.3     1  UNL1        0.1197
      6 N         141.7813  139.6621  160.0163 N.am    1  UNL1       -0.2555
      7 C         143.1745  140.1868  159.8326 C.2     1  UNL1        0.2497
      8 O         143.7055  140.4377  158.4523 O.2     1  UNL1       -0.2727
      9 C         144.0367  140.4605  161.0290 C.3     1  UNL1        0.1799
     10 C         142.7752  139.7306  167.7466 C.ar    1  UNL1        0.0536
     11 C         143.3741  138.6045  166.9573 C.ar    1  UNL1        0.0047
     12 C         143.9050  138.8554  165.5770 C.ar    1  UNL1        0.0047
     13 C         143.8370  140.2325  164.9862 C.ar    1  UNL1        0.0536
     14 C         143.2381  141.3586  165.7755 C.ar    1  UNL1        0.0047
     15 C         142.7072  141.1076  167.1558 C.ar    1  UNL1        0.0047
     16 O         143.1035  138.7948  170.1480 O.2     1  UNL1       -0.2699
     17 C         142.2442  139.4797  169.1270 C.2     1  UNL1        0.2490
     18 N         140.8541  139.9137  169.4862 N.am    1  UNL1       -0.2760
     19 C         139.7370  140.6026  168.7598 C.3     1  UNL1        0.0955
     20 C         138.8880  140.5274  169.9941 C.3     1  UNL1        0.0430
     21 C         140.0051  139.8385  170.7205 C.3     1  UNL1        0.0955
     22 C         140.9191  139.3883  158.8198 C.ar    1  UNL1        0.0541
     23 C         140.9983  138.0606  158.1263 C.ar    1  UNL1        0.0180
     24 C         140.1360  137.7868  156.9298 C.ar    1  UNL1        0.0382
     25 C         139.1947  138.8408  156.4268 C.ar    1  UNL1        0.1386
     26 C         139.1155  140.1685  157.1203 C.ar    1  UNL1        0.0382
     27 C         139.9777  140.4422  158.3168 C.ar    1  UNL1        0.0180
     28 O         138.3325  138.5670  155.2303 O.3     1  UNL1       -0.4754
     29 C         138.4799  137.2772  154.4790 C.3     1  UNL1        0.2068
     30 C         139.2155  137.2505  153.1719 C.3     1  UNL1        0.0646
     31 C         140.3239  136.2634  152.9551 C.3     1  UNL1        0.0759
     32 N         141.3444  136.0336  154.0301 N.3     1  UNL1       -0.2726
     33 C         141.2272  134.8414  154.9329 C.3     1  UNL1        0.0721
     34 C         142.2478  134.6116  156.0080 C.3     1  UNL1        0.0174
     35 C         143.3854  135.5739  156.1803 C.3     1  UNL1        0.0029
     36 C         143.5026  136.7660  155.2775 C.3     1  UNL1        0.0174
     37 C         142.4821  136.9959  154.2025 C.3     1  UNL1        0.0721
@<TRIPOS>BOND
     1    16    17    2
     2    17    10    1
     3    10    11   ar
     4    11    12   ar
     5    12    13   ar
     6    13     1    1
     7     1     2    2
     8     1     3   am
     9     3     4    1
    10     4     5    1
    11     5     6    1
    12     6    22    1
    13    22    23   ar
    14    23    24   ar
    15    24    25   ar
    16    25    28    1
    17    28    29    1
    18    29    30    1
    19    30    31    1
    20    31    32    1
    21    32    33    1
    22    33    34    1
    23    34    35    1
    24    35    36    1
    25    36    37    1
    26    25    26   ar
    27    26    27   ar
    28     6     7   am
    29     7     8    2
    30     7     9    1
    31    13    14   ar
    32    14    15   ar
    33    17    18   am
    34    18    19    1
    35    19    20    1
    36    20    21    1
    37    15    10   ar
    38    21    18    1
    39     9     3    1
    40    27    22   ar
    41    37    32    1
@<TRIPOS>MOLECULE
*****
 37 41 0 0 0
SMALL
GASTEIGER

@<TRIPOS>ATOM
      1 C         143.3602  139.0941  156.4907 C.2     1  UNL1        0.2494
      2 O         143.7701  140.1072  155.4632 O.2     1  UNL1       -0.2699
      3 N         143.3256  139.4699  157.9424 N.am    1  UNL1       -0.2660
      4 C         142.9158  138.4568  158.9698 C.3     1  UNL1        0.1160
      5 C         142.8812  138.8327  160.4216 C.3     1  UNL1        0.1197
      6 N         143.2565  140.2216  160.8459 N.am    1  UNL1       -0.2555
      7 C         143.6663  141.2347  159.8184 C.2     1  UNL1        0.2497
      8 O         144.0416  142.6236  160.2427 O.2     1  UNL1       -0.2727
      9 C         143.7009  140.8589  158.3667 C.3     1  UNL1        0.1799
     10 C         142.2345  134.9273  155.2177 C.ar    1  UNL1        0.0536
     11 C         143.6775  135.3351  155.2581 C.ar    1  UNL1        0.0047
     12 C         144.0527  136.7240  155.6824 C.ar    1  UNL1        0.0047
     13 C         142.9850  137.7051  156.0663 C.ar    1  UNL1        0.0536
     14 C         141.5420  137.2973  156.0260 C.ar    1  UNL1        0.0047
     15 C         141.1668  135.9084  155.6017 C.ar    1  UNL1        0.0047
     16 O         141.0539  133.3271  153.5457 O.2     1  UNL1       -0.2699
     17 C         141.8593  133.5383  154.7934 C.2     1  UNL1        0.2490
     18 N         142.2894  132.3606  155.6167 N.am    1  UNL1       -0.2760
     19 C         143.0755  132.1810  156.8816 C.3     1  UNL1        0.0955
     20 C         142.8977  130.6950  156.7812 C.3     1  UNL1        0.0430
     21 C         142.1115  130.8745  155.5164 C.3     1  UNL1        0.0955
     22 C         143.2219  140.5974  162.2976 C.ar    1  UNL1        0.0541
     23 C         144.3377  140.1775  163.2078 C.ar    1  UNL1        0.0180
     24 C         144.3031  140.5533  164.6596 C.ar    1  UNL1        0.0382
     25 C         143.1526  141.3491  165.2011 C.ar    1  UNL1        0.1386
     26 C         142.0368  141.7690  164.2908 C.ar    1  UNL1        0.0382
     27 C         142.0714  141.3932  162.8391 C.ar    1  UNL1        0.0180
     28 O         143.1181  141.7249  166.6528 O.3     1  UNL1       -0.4754
     29 C         141.9081  141.4082  167.4809 C.3     1  UNL1        0.2068
     30 C         141.3713  140.0080  167.5196 C.3     1  UNL1        0.0646
     31 C         140.0948  139.6742  166.8060 C.3     1  UNL1        0.0759
     32 N         140.1384  138.9948  165.4694 N.3     1  UNL1       -0.2726
     33 C         141.3445  138.1959  165.0732 C.3     1  UNL1        0.0721
     34 C         141.3880  137.5164  163.7365 C.3     1  UNL1        0.0174
     35 C         140.2254  137.6360  162.7962 C.3     1  UNL1        0.0029
     36 C         139.0194  138.4349  163.1925 C.3     1  UNL1        0.0174
     37 C         138.9758  139.1143  164.5291 C.3     1  UNL1        0.0721
@<TRIPOS>BOND
     1    16    17    2
     2    17    10    1
     3    10    11   ar
     4    11    12   ar
     5    12    13   ar
     6    13     1    1
     7     1     2    2
     8     1     3   am
     9     3     4    1
    10     4     5    1
    11     5     6    1
    12     6    22    1
    13    22    23   ar
    14    23    24   ar
    15    24    25   ar
    16    25    28    1
    17    28    29    1
    18    29    30    1
    19    30    31    1
    20    31    32    1
    21    32    33    1
    22    33    34    1
    23    34    35    1
    24    35    36    1
    25    36    37    1
    26    25    26   ar
    27    26    27   ar
    28     6     7   am
    29     7     8    2
    30     7     9    1
    31    13    14   ar
    32    14    15   ar
    33    17    18   am
    34    18    19    1
    35    19    20    1
    36    20    21    1
    37    15    10   ar
    38    21    18    1
    39     9     3    1
    40    27    22   ar
    41    37    32    1
@<TRIPOS>MOLECULE
*****
 37 41 0 0 0
SMALL
GASTEIGER

@<TRIPOS>ATOM
      1 C         143.8003  137.1343  156.0039 C.2     1  UNL1        0.2494
      2 O         145.0797  137.5672  155.3514 O.2     1  UNL1       -0.2699
      3 N         143.0122  138.1080  156.8289 N.am    1  UNL1       -0.2660
      4 C         141.7328  137.6751  157.4813 C.3     1  UNL1        0.1160
      5 C         140.9446  138.6489  158.3063 C.3     1  UNL1        0.1197
      6 N         141.4359  140.0556  158.4789 N.am    1  UNL1       -0.2555
      7 C         142.7153  140.4885  157.8264 C.2     1  UNL1        0.2497
      8 O         143.2066  141.8952  157.9989 O.2     1  UNL1       -0.2727
      9 C         143.5034  139.5148  157.0014 C.3     1  UNL1        0.1799
     10 C         142.3265  132.9141  155.4863 C.ar    1  UNL1        0.0536
     11 C         142.9517  133.3365  156.7827 C.ar    1  UNL1        0.0047
     12 C         143.4429  134.7432  156.9552 C.ar    1  UNL1        0.0047
     13 C         143.3090  135.7275  155.8313 C.ar    1  UNL1        0.0536
     14 C         142.6839  135.3051  154.5349 C.ar    1  UNL1        0.0047
     15 C         142.1926  133.8984  154.3624 C.ar    1  UNL1        0.0047
     16 O         140.4094  131.2534  154.9231 O.2     1  UNL1       -0.2699
     17 C         141.8353  131.5073  155.3137 C.2     1  UNL1        0.2490
     18 N         142.7698  130.3545  155.5318 N.am    1  UNL1       -0.2760
     19 C         144.2133  130.2172  155.9160 C.3     1  UNL1        0.0955
     20 C         144.0915  128.7241  155.8402 C.3     1  UNL1        0.0430
     21 C         142.6480  128.8613  155.4561 C.3     1  UNL1        0.0955
     22 C         140.6478  141.0293  159.3038 C.ar    1  UNL1        0.0541
     23 C         141.2394  141.6008  160.5582 C.ar    1  UNL1        0.0180
     24 C         140.4512  142.5746  161.3832 C.ar    1  UNL1        0.0382
     25 C         139.0715  142.9769  160.9538 C.ar    1  UNL1        0.1386
     26 C         138.4799  142.4055  159.6994 C.ar    1  UNL1        0.0382
     27 C         139.2680  141.4317  158.8744 C.ar    1  UNL1        0.0180
     28 O         138.2834  143.9506  161.7788 O.3     1  UNL1       -0.4754
     29 C         137.7091  143.5241  163.0972 C.3     1  UNL1        0.2068
     30 C         138.2071  144.1455  164.3685 C.3     1  UNL1        0.0646
     31 C         139.2995  143.4791  165.1512 C.3     1  UNL1        0.0759
     32 N         140.7359  143.7492  164.8139 N.3     1  UNL1       -0.2726
     33 C         141.1028  144.9638  164.0138 C.3     1  UNL1        0.0721
     34 C         142.5393  145.2339  163.6765 C.3     1  UNL1        0.0174
     35 C         143.6087  144.2895  164.1394 C.3     1  UNL1        0.0029
     36 C         143.2418  143.0749  164.9396 C.3     1  UNL1        0.0174
     37 C         141.8054  142.8048  165.2768 C.3     1  UNL1        0.0721
@<TRIPOS>BOND
     1    16    17    2
     2    17    10    1
     3    10    11   ar
     4    11    12   ar
     5    12    13   ar
     6    13     1    1
     7     1     2    2
     8     1     3   am
     9     3     4    1
    10     4     5    1
    11     5     6    1
    12     6    22    1
    13    22    23   ar
    14    23    24   ar
    15    24    25   ar
    16    25    28    1
    17    28    29    1
    18    29    30    1
    19    30    31    1
    20    31    32    1
    21    32    33    1
    22    33    34    1
    23    34    35    1
    24    35    36    1
    25    36    37    1
    26    25    26   ar
    27    26    27   ar
    28     6     7   am
    29     7     8    2
    30     7     9    1
    31    13    14   ar
    32    14    15   ar
    33    17    18   am
    34    18    19    1
    35    19    20    1
    36    20    21    1
    37    15    10   ar
    38    21    18    1
    39     9     3    1
    40    27    22   ar
    41    37    32    1
@<TRIPOS>MOLECULE
*****
 37 41 0 0 0
SMALL
GASTEIGER

@<TRIPOS>ATOM
      1 C         144.4754  140.5373  163.5178 C.2     1  UNL1        0.2494
      2 O         145.7012  141.3885  163.3665 O.2     1  UNL1       -0.2699
      3 N         143.8038  139.9670  162.3038 N.am    1  UNL1       -0.2660
      4 C         142.5780  139.1158  162.4551 C.3     1  UNL1        0.1160
      5 C         141.9064  138.5456  161.2411 C.3     1  UNL1        0.1197
      6 N         142.4606  138.8265  159.8759 N.am    1  UNL1       -0.2555
      7 C         143.6864  139.6777  159.7246 C.2     1  UNL1        0.2497
      8 O         144.2406  139.9587  158.3593 O.2     1  UNL1       -0.2727
      9 C         144.3580  140.2480  160.9385 C.3     1  UNL1        0.1799
     10 C         142.8130  139.6944  167.6136 C.ar    1  UNL1        0.0536
     11 C         143.3896  138.5783  166.7940 C.ar    1  UNL1        0.0047
     12 C         143.9438  138.8593  165.4288 C.ar    1  UNL1        0.0047
     13 C         143.9213  140.2563  164.8831 C.ar    1  UNL1        0.0536
     14 C         143.3446  141.3724  165.7027 C.ar    1  UNL1        0.0047
     15 C         142.7905  141.0914  167.0680 C.ar    1  UNL1        0.0047
     16 O         143.0781  138.6526  169.9789 O.2     1  UNL1       -0.2699
     17 C         142.2588  139.4134  168.9789 C.2     1  UNL1        0.2490
     18 N         140.8854  139.8933  169.3442 N.am    1  UNL1       -0.2760
     19 C         139.8061  140.6579  168.6369 C.3     1  UNL1        0.0955
     20 C         138.9431  140.5720  169.8608 C.3     1  UNL1        0.0430
     21 C         140.0225  139.8073  170.5681 C.3     1  UNL1        0.0955
     22 C         141.7890  138.2563  158.6619 C.ar    1  UNL1        0.0541
     23 C         142.4962  137.2316  157.8253 C.ar    1  UNL1        0.0180
     24 C         141.8245  136.6614  156.6113 C.ar    1  UNL1        0.0382
     25 C         140.4457  137.1158  156.2339 C.ar    1  UNL1        0.1386
     26 C         139.7385  138.1405  157.0706 C.ar    1  UNL1        0.0382
     27 C         140.4101  138.7107  158.2845 C.ar    1  UNL1        0.0180
     28 O         139.7741  136.5456  155.0200 O.3     1  UNL1       -0.4754
     29 C         138.5705  137.2267  154.4392 C.3     1  UNL1        0.2068
     30 C         138.7354  138.2272  153.3337 C.3     1  UNL1        0.0646
     31 C         138.4789  139.6819  153.5944 C.3     1  UNL1        0.0759
     32 N         137.2140  140.1098  154.2777 N.3     1  UNL1       -0.2726
     33 C         135.9135  140.0880  153.5305 C.3     1  UNL1        0.0721
     34 C         134.6486  140.5159  154.2139 C.3     1  UNL1        0.0174
     35 C         134.6842  140.9656  155.6444 C.3     1  UNL1        0.0029
     36 C         135.9846  140.9874  156.3916 C.3     1  UNL1        0.0174
     37 C         137.2495  140.5595  155.7083 C.3     1  UNL1        0.0721
@<TRIPOS>BOND
     1    16    17    2
     2    17    10    1
     3    10    11   ar
     4    11    12   ar
     5    12    13   ar
     6    13     1    1
     7     1     2    2
     8     1     3   am
     9     3     4    1
    10     4     5    1
    11     5     6    1
    12     6    22    1
    13    22    23   ar
    14    23    24   ar
    15    24    25   ar
    16    25    28    1
    17    28    29    1
    18    29    30    1
    19    30    31    1
    20    31    32    1
    21    32    33    1
    22    33    34    1
    23    34    35    1
    24    35    36    1
    25    36    37    1
    26    25    26   ar
    27    26    27   ar
    28     6     7   am
    29     7     8    2
    30     7     9    1
    31    13    14   ar
    32    14    15   ar
    33    17    18   am
    34    18    19    1
    35    19    20    1
    36    20    21    1
    37    15    10   ar
    38    21    18    1
    39     9     3    1
    40    27    22   ar
    41    37    32    1
