@<TRIPOS>MOLECULE
*****
 35 39 0 0 0
SMALL
GASTEIGER

@<TRIPOS>ATOM
      1 C         143.6195  137.5275  156.0421 C.ar    1  UNL1        0.0830
      2 C         144.5674  138.0730  155.0155 C.ar    1  UNL1        0.0193
      3 C         145.1691  139.4347  155.1989 C.ar    1  UNL1        0.0074
      4 C         144.8229  140.2509  156.4088 C.ar    1  UNL1        0.0676
      5 C         145.4247  141.6127  156.5922 C.ar    1  UNL1        0.1376
      6 N         145.0785  142.4289  157.8021 N.ar    1  UNL1       -0.1986
      7 C         144.1306  141.8834  158.8287 C.ar    1  UNL1        0.2227
      8 N         143.5289  140.5217  158.6453 N.ar    1  UNL1       -0.1944
      9 C         143.8750  139.7055  157.4354 C.ar    1  UNL1        0.1678
     10 N         143.2733  138.3438  157.2520 N.ar    1  UNL1       -0.2264
     11 N         146.3726  142.1582  155.5656 N.pl3   1  UNL1       -0.2897
     12 C         147.8319  141.8183  155.6366 C.3     1  UNL1        0.1242
     13 C         148.7798  142.3639  154.6100 C.3     1  UNL1        0.1636
     14 O         148.2685  143.2492  153.5124 O.3     1  UNL1       -0.3502
     15 C         146.8092  143.5890  153.4414 C.3     1  UNL1        0.1618
     16 C         145.8613  143.0435  154.4680 C.3     1  UNL1        0.1038
     17 C         144.4020  143.3834  154.3970 C.3     1  UNL1        0.0241
     18 N         143.7844  142.6996  160.0386 N.pl3   1  UNL1       -0.2747
     19 C         144.7189  142.7357  161.2115 C.3     1  UNL1        0.1256
     20 C         144.3727  143.5520  162.4214 C.3     1  UNL1        0.1637
     21 O         143.0920  144.3320  162.4585 O.3     1  UNL1       -0.3502
     22 C         142.1576  144.2959  161.2857 C.3     1  UNL1        0.1619
     23 C         142.5037  143.4796  160.0758 C.3     1  UNL1        0.1052
     24 C         141.5693  143.4435  158.9030 C.3     1  UNL1        0.0242
     25 C         143.1593  133.5869  156.1403 C.ar    1  UNL1        0.0534
     26 C         141.8142  133.4423  155.4921 C.ar    1  UNL1        0.0045
     27 C         141.0710  134.6595  155.0273 C.ar    1  UNL1        0.0002
     28 C         141.6728  136.0212  155.2106 C.ar    1  UNL1        0.0015
     29 C         143.0177  136.1658  155.8588 C.ar    1  UNL1        0.0179
     30 C         143.7610  134.9486  156.3236 C.ar    1  UNL1        0.0060
     31 C         143.9883  130.1858  158.0099 C.3     1  UNL1        0.1109
     32 N         143.2451  131.4030  157.5450 N.am    1  UNL1       -0.2992
     33 C         143.9025  132.3697  156.6052 C.2     1  UNL1        0.2459
     34 O         145.3031  132.1193  156.1303 O.2     1  UNL1       -0.2701
     35 H         142.3258  131.5673  157.8567 H       1  UNL1        0.1498
@<TRIPOS>BOND
     1    31    32    1
     2    32    33   am
     3    33    34    2
     4    33    25    1
     5    25    26   ar
     6    26    27   ar
     7    27    28   ar
     8    28    29   ar
     9    29     1    1
    10     1     2   ar
    11     2     3   ar
    12     3     4   ar
    13     4     5   ar
    14     5    11    1
    15    11    12    1
    16    12    13    1
    17    13    14    1
    18    14    15    1
    19    15    16    1
    20    16    17    1
    21     5     6   ar
    22     6     7   ar
    23     7    18    1
    24    18    19    1
    25    19    20    1
    26    20    21    1
    27    21    22    1
    28    22    23    1
    29    23    24    1
    30     7     8   ar
    31     8     9   ar
    32     9    10   ar
    33    29    30   ar
    34    30    25   ar
    35    10     1   ar
    36     9     4   ar
    37    16    11    1
    38    23    18    1
    39    32    35    1
@<TRIPOS>MOLECULE
*****
 35 39 0 0 0
SMALL
GASTEIGER

@<TRIPOS>ATOM
      1 C         143.2852  137.5247  156.3983 C.ar    1  UNL1        0.0830
      2 C         142.5809  138.3230  157.4550 C.ar    1  UNL1        0.0193
      3 C         143.0555  139.7057  157.7912 C.ar    1  UNL1        0.0074
      4 C         144.2344  140.2899  157.0708 C.ar    1  UNL1        0.0676
      5 C         144.7090  141.6726  157.4071 C.ar    1  UNL1        0.1376
      6 N         145.8879  142.2568  156.6867 N.ar    1  UNL1       -0.1986
      7 C         146.5921  141.4583  155.6300 C.ar    1  UNL1        0.2227
      8 N         146.1175  140.0757  155.2938 N.ar    1  UNL1       -0.1944
      9 C         144.9387  139.4915  156.0142 C.ar    1  UNL1        0.1678
     10 N         144.4641  138.1089  155.6779 N.ar    1  UNL1       -0.2264
     11 N         144.0047  142.4709  158.4638 N.pl3   1  UNL1       -0.2897
     12 C         144.4292  142.3565  159.8979 C.3     1  UNL1        0.1242
     13 C         143.7249  143.1549  160.9545 C.3     1  UNL1        0.1636
     14 O         142.5961  144.0678  160.5771 O.3     1  UNL1       -0.3502
     15 C         142.1716  144.1823  159.1429 C.3     1  UNL1        0.1618
     16 C         142.8759  143.3839  158.0863 C.3     1  UNL1        0.1038
     17 C         142.4514  143.4983  156.6522 C.3     1  UNL1        0.0241
     18 N         147.7710  142.0425  154.9097 N.pl3   1  UNL1       -0.2747
     19 C         149.1586  141.5815  155.2448 C.3     1  UNL1        0.1256
     20 C         150.3374  142.1658  154.5244 C.3     1  UNL1        0.1637
     21 O         150.1288  143.2109  153.4689 O.3     1  UNL1       -0.3502
     22 C         148.7413  143.6719  153.1338 C.3     1  UNL1        0.1619
     23 C         147.5624  143.0876  153.8542 C.3     1  UNL1        0.1052
     24 C         146.1749  143.5486  153.5190 C.3     1  UNL1        0.0242
     25 C         143.1227  133.5654  156.1794 C.ar    1  UNL1        0.0534
     26 C         141.8615  133.3767  155.3895 C.ar    1  UNL1        0.0045
     27 C         141.0749  134.5706  154.9359 C.ar    1  UNL1        0.0002
     28 C         141.5495  135.9533  155.2722 C.ar    1  UNL1        0.0015
     29 C         142.8106  136.1420  156.0620 C.ar    1  UNL1        0.0179
     30 C         143.5972  134.9480  156.5156 C.ar    1  UNL1        0.0060
     31 C         144.0835  130.1935  158.0388 C.3     1  UNL1        0.1109
     32 N         143.2968  131.3874  157.5852 N.am    1  UNL1       -0.2992
     33 C         143.9093  132.3714  156.6329 C.2     1  UNL1        0.2459
     34 O         145.3083  132.1615  156.1343 O.2     1  UNL1       -0.2701
     35 H         142.3786  131.5253  157.9125 H       1  UNL1        0.1498
@<TRIPOS>BOND
     1    31    32    1
     2    32    33   am
     3    33    34    2
     4    33    25    1
     5    25    26   ar
     6    26    27   ar
     7    27    28   ar
     8    28    29   ar
     9    29     1    1
    10     1     2   ar
    11     2     3   ar
    12     3     4   ar
    13     4     5   ar
    14     5    11    1
    15    11    12    1
    16    12    13    1
    17    13    14    1
    18    14    15    1
    19    15    16    1
    20    16    17    1
    21     5     6   ar
    22     6     7   ar
    23     7    18    1
    24    18    19    1
    25    19    20    1
    26    20    21    1
    27    21    22    1
    28    22    23    1
    29    23    24    1
    30     7     8   ar
    31     8     9   ar
    32     9    10   ar
    33    29    30   ar
    34    30    25   ar
    35    10     1   ar
    36     9     4   ar
    37    16    11    1
    38    23    18    1
    39    32    35    1
@<TRIPOS>MOLECULE
*****
 35 39 0 0 0
SMALL
GASTEIGER

@<TRIPOS>ATOM
      1 C         142.1781  136.6666  156.6195 C.ar    1  UNL1        0.0830
      2 C         141.1800  137.6504  156.0848 C.ar    1  UNL1        0.0193
      3 C         140.9614  138.9557  156.7908 C.ar    1  UNL1        0.0074
      4 C         141.7408  139.2771  158.0314 C.ar    1  UNL1        0.0676
      5 C         141.5221  140.5825  158.7374 C.ar    1  UNL1        0.1376
      6 N         142.3015  140.9039  159.9780 N.ar    1  UNL1       -0.1986
      7 C         143.2996  139.9200  160.5127 C.ar    1  UNL1        0.2227
      8 N         143.5182  138.6147  159.8068 N.ar    1  UNL1       -0.1944
      9 C         142.7388  138.2933  158.5661 C.ar    1  UNL1        0.1678
     10 N         142.9575  136.9880  157.8601 N.ar    1  UNL1       -0.2264
     11 N         140.5240  141.5663  158.2027 N.pl3   1  UNL1       -0.2897
     12 C         140.9556  142.6127  157.2185 C.3     1  UNL1        0.1242
     13 C         139.9575  143.5966  156.6838 C.3     1  UNL1        0.1636
     14 O         138.5278  143.5340  157.1334 O.3     1  UNL1       -0.3502
     15 C         138.0962  142.4875  158.1176 C.3     1  UNL1        0.1618
     16 C         139.0943  141.5037  158.6523 C.3     1  UNL1        0.1038
     17 C         138.6627  140.4572  159.6365 C.3     1  UNL1        0.0241
     18 N         144.0790  140.2414  161.7534 N.pl3   1  UNL1       -0.2747
     19 C         144.1337  139.2543  162.8816 C.3     1  UNL1        0.1256
     20 C         144.9131  139.5758  164.1222 C.3     1  UNL1        0.1637
     21 O         145.6378  140.8843  164.2347 O.3     1  UNL1       -0.3502
     22 C         145.5831  141.8713  163.1065 C.3     1  UNL1        0.1619
     23 C         144.8037  141.5499  161.8659 C.3     1  UNL1        0.1052
     24 C         144.7490  142.5369  160.7377 C.3     1  UNL1        0.0242
     25 C         143.3465  132.9431  155.8983 C.ar    1  UNL1        0.0534
     26 C         142.8341  132.7506  154.5017 C.ar    1  UNL1        0.0045
     27 C         142.1031  133.8635  153.8110 C.ar    1  UNL1        0.0002
     28 C         141.8844  135.1688  154.5170 C.ar    1  UNL1        0.0015
     29 C         142.3967  135.3612  155.9135 C.ar    1  UNL1        0.0179
     30 C         143.1278  134.2484  156.6042 C.ar    1  UNL1        0.0060
     31 C         144.0763  129.8125  158.2258 C.3     1  UNL1        0.1109
     32 N         143.3453  130.9254  157.5352 N.am    1  UNL1       -0.2992
     33 C         144.0776  131.8302  156.5890 C.2     1  UNL1        0.2459
     34 O         145.5409  131.6220  156.3335 O.2     1  UNL1       -0.2701
     35 H         142.3848  131.0621  157.7029 H       1  UNL1        0.1498
@<TRIPOS>BOND
     1    31    32    1
     2    32    33   am
     3    33    34    2
     4    33    25    1
     5    25    26   ar
     6    26    27   ar
     7    27    28   ar
     8    28    29   ar
     9    29     1    1
    10     1     2   ar
    11     2     3   ar
    12     3     4   ar
    13     4     5   ar
    14     5    11    1
    15    11    12    1
    16    12    13    1
    17    13    14    1
    18    14    15    1
    19    15    16    1
    20    16    17    1
    21     5     6   ar
    22     6     7   ar
    23     7    18    1
    24    18    19    1
    25    19    20    1
    26    20    21    1
    27    21    22    1
    28    22    23    1
    29    23    24    1
    30     7     8   ar
    31     8     9   ar
    32     9    10   ar
    33    29    30   ar
    34    30    25   ar
    35    10     1   ar
    36     9     4   ar
    37    16    11    1
    38    23    18    1
    39    32    35    1
@<TRIPOS>MOLECULE
*****
 35 39 0 0 0
SMALL
GASTEIGER

@<TRIPOS>ATOM
      1 C         142.9716  137.1709  157.1045 C.ar    1  UNL1        0.0830
      2 C         142.5737  137.6466  158.4703 C.ar    1  UNL1        0.0193
      3 C         142.8179  139.0719  158.8686 C.ar    1  UNL1        0.0074
      4 C         143.4600  140.0216  157.9012 C.ar    1  UNL1        0.0676
      5 C         143.7042  141.4470  158.2996 C.ar    1  UNL1        0.1376
      6 N         144.3463  142.3966  157.3322 N.ar    1  UNL1       -0.1986
      7 C         144.7442  141.9209  155.9664 C.ar    1  UNL1        0.2227
      8 N         144.5000  140.4956  155.5680 N.ar    1  UNL1       -0.1944
      9 C         143.8579  139.5459  156.5355 C.ar    1  UNL1        0.1678
     10 N         143.6137  138.1206  156.1371 N.ar    1  UNL1       -0.2264
     11 N         143.3063  141.9227  159.6654 N.pl3   1  UNL1       -0.2897
     12 C         144.2768  141.8271  160.8051 C.3     1  UNL1        0.1242
     13 C         143.8788  142.3029  162.1710 C.3     1  UNL1        0.1636
     14 O         142.5104  142.8741  162.3970 O.3     1  UNL1       -0.3502
     15 C         141.5399  142.9696  161.2572 C.3     1  UNL1        0.1618
     16 C         141.9378  142.4940  159.8915 C.3     1  UNL1        0.1038
     17 C         140.9673  142.5895  158.7517 C.3     1  UNL1        0.0241
     18 N         145.3863  142.8705  154.9990 N.pl3   1  UNL1       -0.2747
     19 C         144.5333  143.7258  154.1096 C.3     1  UNL1        0.1256
     20 C         145.1754  144.6755  153.1422 C.3     1  UNL1        0.1637
     21 O         146.6705  144.7698  153.0642 O.3     1  UNL1       -0.3502
     22 C         147.5234  143.9146  153.9536 C.3     1  UNL1        0.1619
     23 C         146.8813  142.9649  154.9210 C.3     1  UNL1        0.1052
     24 C         147.7341  142.1096  155.8104 C.3     1  UNL1        0.0242
     25 C         143.2873  133.2186  156.9323 C.ar    1  UNL1        0.0534
     26 C         142.2391  132.8948  155.9093 C.ar    1  UNL1        0.0045
     27 C         141.4350  133.9963  155.2847 C.ar    1  UNL1        0.0002
     28 C         141.6792  135.4217  155.6831 C.ar    1  UNL1        0.0015
     29 C         142.7274  135.7455  156.7061 C.ar    1  UNL1        0.0179
     30 C         143.5314  134.6439  157.3307 C.ar    1  UNL1        0.0060
     31 C         144.2868  129.6575  158.3710 C.3     1  UNL1        0.1109
     32 N         143.4828  130.7591  157.7464 N.am    1  UNL1       -0.2992
     33 C         144.0913  132.1170  157.5569 C.2     1  UNL1        0.2459
     34 O         145.5037  132.3733  157.9919 O.2     1  UNL1       -0.2701
     35 H         142.5557  130.5909  157.4609 H       1  UNL1        0.1498
@<TRIPOS>BOND
     1    31    32    1
     2    32    33   am
     3    33    34    2
     4    33    25    1
     5    25    26   ar
     6    26    27   ar
     7    27    28   ar
     8    28    29   ar
     9    29     1    1
    10     1     2   ar
    11     2     3   ar
    12     3     4   ar
    13     4     5   ar
    14     5    11    1
    15    11    12    1
    16    12    13    1
    17    13    14    1
    18    14    15    1
    19    15    16    1
    20    16    17    1
    21     5     6   ar
    22     6     7   ar
    23     7    18    1
    24    18    19    1
    25    19    20    1
    26    20    21    1
    27    21    22    1
    28    22    23    1
    29    23    24    1
    30     7     8   ar
    31     8     9   ar
    32     9    10   ar
    33    29    30   ar
    34    30    25   ar
    35    10     1   ar
    36     9     4   ar
    37    16    11    1
    38    23    18    1
    39    32    35    1
@<TRIPOS>MOLECULE
*****
 35 39 0 0 0
SMALL
GASTEIGER

@<TRIPOS>ATOM
      1 C         142.3378  136.9406  156.3987 C.ar    1  UNL1        0.0830
      2 C         141.4857  138.0086  155.7797 C.ar    1  UNL1        0.0193
      3 C         141.3269  139.3329  156.4659 C.ar    1  UNL1        0.0074
      4 C         142.0203  139.5892  157.7711 C.ar    1  UNL1        0.0676
      5 C         141.8614  140.9136  158.4574 C.ar    1  UNL1        0.1376
      6 N         142.5548  141.1699  159.7626 N.ar    1  UNL1       -0.1986
      7 C         143.4070  140.1018  160.3815 C.ar    1  UNL1        0.2227
      8 N         143.5658  138.7775  159.6953 N.ar    1  UNL1       -0.1944
      9 C         142.8724  138.5212  158.3901 C.ar    1  UNL1        0.1678
     10 N         143.0312  137.1969  157.7039 N.ar    1  UNL1       -0.2264
     11 N         141.0093  141.9816  157.8384 N.pl3   1  UNL1       -0.2897
     12 C         139.5372  142.0255  158.1232 C.3     1  UNL1        0.1242
     13 C         138.6851  143.0936  157.5042 C.3     1  UNL1        0.1636
     14 O         139.3050  144.1177  156.6004 O.3     1  UNL1       -0.3502
     15 C         140.7771  144.0738  156.3156 C.3     1  UNL1        0.1618
     16 C         141.6292  143.0058  156.9346 C.3     1  UNL1        0.1038
     17 C         143.1013  142.9618  156.6498 C.3     1  UNL1        0.0241
     18 N         144.1004  140.3581  161.6867 N.pl3   1  UNL1       -0.2747
     19 C         144.9632  141.5740  161.8515 C.3     1  UNL1        0.1256
     20 C         145.6566  141.8303  163.1568 C.3     1  UNL1        0.1637
     21 O         145.4871  140.8707  164.2972 O.3     1  UNL1       -0.3502
     22 C         144.6243  139.6548  164.1323 C.3     1  UNL1        0.1619
     23 C         143.9309  139.3985  162.8271 C.3     1  UNL1        0.1052
     24 C         143.0681  138.1826  162.6623 C.3     1  UNL1        0.0242
     25 C         143.3220  133.1529  155.7393 C.ar    1  UNL1        0.0534
     26 C         142.8143  132.9675  154.3400 C.ar    1  UNL1        0.0045
     27 C         142.1477  134.1064  153.6270 C.ar    1  UNL1        0.0002
     28 C         141.9889  135.4308  154.3132 C.ar    1  UNL1        0.0015
     29 C         142.4966  135.6162  155.7124 C.ar    1  UNL1        0.0179
     30 C         143.1632  134.4772  156.4255 C.ar    1  UNL1        0.0060
     31 C         143.8536  129.9812  158.0648 C.3     1  UNL1        0.1109
     32 N         143.1870  131.1201  157.3517 N.am    1  UNL1       -0.2992
     33 C         143.9886  132.0139  156.4524 C.2     1  UNL1        0.2459
     34 O         145.4566  131.7686  156.2660 O.2     1  UNL1       -0.2701
     35 H         142.2235  131.2811  157.4740 H       1  UNL1        0.1498
@<TRIPOS>BOND
     1    31    32    1
     2    32    33   am
     3    33    34    2
     4    33    25    1
     5    25    26   ar
     6    26    27   ar
     7    27    28   ar
     8    28    29   ar
     9    29     1    1
    10     1     2   ar
    11     2     3   ar
    12     3     4   ar
    13     4     5   ar
    14     5    11    1
    15    11    12    1
    16    12    13    1
    17    13    14    1
    18    14    15    1
    19    15    16    1
    20    16    17    1
    21     5     6   ar
    22     6     7   ar
    23     7    18    1
    24    18    19    1
    25    19    20    1
    26    20    21    1
    27    21    22    1
    28    22    23    1
    29    23    24    1
    30     7     8   ar
    31     8     9   ar
    32     9    10   ar
    33    29    30   ar
    34    30    25   ar
    35    10     1   ar
    36     9     4   ar
    37    16    11    1
    38    23    18    1
    39    32    35    1
@<TRIPOS>MOLECULE
*****
 35 39 0 0 0
SMALL
GASTEIGER

@<TRIPOS>ATOM
      1 C         137.2007  140.9703  156.9220 C.ar    1  UNL1        0.0830
      2 C         138.5695  141.3739  156.4599 C.ar    1  UNL1        0.0193
      3 C         139.7342  141.2884  157.4012 C.ar    1  UNL1        0.0074
      4 C         139.5302  140.7994  158.8045 C.ar    1  UNL1        0.0676
      5 C         140.6951  140.7140  159.7457 C.ar    1  UNL1        0.1376
      6 N         140.4911  140.2250  161.1490 N.ar    1  UNL1       -0.1986
      7 C         139.1222  139.8214  161.6111 C.ar    1  UNL1        0.2227
      8 N         137.9574  139.9069  160.6698 N.ar    1  UNL1       -0.1944
      9 C         138.1614  140.3959  159.2665 C.ar    1  UNL1        0.1678
     10 N         136.9967  140.4813  158.3253 N.ar    1  UNL1       -0.2264
     11 N         142.0638  141.1175  159.2837 N.pl3   1  UNL1       -0.2897
     12 C         142.9388  140.1263  158.5752 C.3     1  UNL1        0.1242
     13 C         144.3077  140.5299  158.1131 C.3     1  UNL1        0.1636
     14 O         144.8015  141.9247  158.3596 O.3     1  UNL1       -0.3502
     15 C         143.9265  142.9159  159.0680 C.3     1  UNL1        0.1618
     16 C         142.5577  142.5123  159.5301 C.3     1  UNL1        0.1038
     17 C         141.6828  143.5035  160.2386 C.3     1  UNL1        0.0241
     18 N         138.9182  139.3324  163.0144 N.pl3   1  UNL1       -0.2747
     19 C         139.2449  137.9118  163.3685 C.3     1  UNL1        0.1256
     20 C         139.0409  137.4228  164.7718 C.3     1  UNL1        0.1637
     21 O         138.5101  138.3544  165.8210 O.3     1  UNL1       -0.3502
     22 C         138.1834  139.7748  165.4668 C.3     1  UNL1        0.1619
     23 C         138.3874  140.2638  164.0635 C.3     1  UNL1        0.1052
     24 C         138.0607  141.6843  163.7093 C.3     1  UNL1        0.0242
     25 C         133.5205  140.6517  155.4713 C.ar    1  UNL1        0.0534
     26 C         133.7062  141.2266  154.0983 C.ar    1  UNL1        0.0045
     27 C         135.0567  141.7161  153.6666 C.ar    1  UNL1        0.0002
     28 C         136.2216  141.6307  154.6078 C.ar    1  UNL1        0.0015
     29 C         136.0358  141.0558  155.9807 C.ar    1  UNL1        0.0179
     30 C         134.6853  140.5663  156.4125 C.ar    1  UNL1        0.0060
     31 C         130.6322  138.2371  156.7275 C.3     1  UNL1        0.1109
     32 N         131.9828  138.7266  156.2957 N.am    1  UNL1       -0.2992
     33 C         132.1699  140.1622  155.9030 C.2     1  UNL1        0.2459
     34 O         131.0065  141.1082  155.9421 O.2     1  UNL1       -0.2701
     35 H         132.7464  138.1057  156.2701 H       1  UNL1        0.1498
@<TRIPOS>BOND
     1    31    32    1
     2    32    33   am
     3    33    34    2
     4    33    25    1
     5    25    26   ar
     6    26    27   ar
     7    27    28   ar
     8    28    29   ar
     9    29     1    1
    10     1     2   ar
    11     2     3   ar
    12     3     4   ar
    13     4     5   ar
    14     5    11    1
    15    11    12    1
    16    12    13    1
    17    13    14    1
    18    14    15    1
    19    15    16    1
    20    16    17    1
    21     5     6   ar
    22     6     7   ar
    23     7    18    1
    24    18    19    1
    25    19    20    1
    26    20    21    1
    27    21    22    1
    28    22    23    1
    29    23    24    1
    30     7     8   ar
    31     8     9   ar
    32     9    10   ar
    33    29    30   ar
    34    30    25   ar
    35    10     1   ar
    36     9     4   ar
    37    16    11    1
    38    23    18    1
    39    32    35    1
@<TRIPOS>MOLECULE
*****
 35 39 0 0 0
SMALL
GASTEIGER

@<TRIPOS>ATOM
      1 C         137.6305  140.3224  155.9492 C.ar    1  UNL1        0.0830
      2 C         138.8390  140.0951  155.0903 C.ar    1  UNL1        0.0193
      3 C         140.1471  139.7193  155.7206 C.ar    1  UNL1        0.0074
      4 C         140.2468  139.5708  157.2099 C.ar    1  UNL1        0.0676
      5 C         141.5550  139.1949  157.8403 C.ar    1  UNL1        0.1376
      6 N         141.6547  139.0464  159.3296 N.ar    1  UNL1       -0.1986
      7 C         140.4461  139.2738  160.1885 C.ar    1  UNL1        0.2227
      8 N         139.1379  139.6496  159.5582 N.ar    1  UNL1       -0.1944
      9 C         139.0383  139.7981  158.0689 C.ar    1  UNL1        0.1678
     10 N         137.7301  140.1739  157.4385 N.ar    1  UNL1       -0.2264
     11 N         142.7635  138.9676  156.9814 N.pl3   1  UNL1       -0.2897
     12 C         143.7157  140.0951  156.7129 C.3     1  UNL1        0.1242
     13 C         144.9243  139.8677  155.8539 C.3     1  UNL1        0.1636
     14 O         145.1806  138.5128  155.2635 O.3     1  UNL1       -0.3502
     15 C         144.2284  137.3853  155.5319 C.3     1  UNL1        0.1618
     16 C         143.0199  137.6127  156.3909 C.3     1  UNL1        0.1038
     17 C         142.0677  136.4852  156.6593 C.3     1  UNL1        0.0241
     18 N         140.5458  139.1253  161.6778 N.pl3   1  UNL1       -0.2747
     19 C         140.2884  137.7931  162.3176 C.3     1  UNL1        0.1256
     20 C         140.3881  137.6446  163.8069 C.3     1  UNL1        0.1637
     21 O         140.7451  138.8283  164.6564 O.3     1  UNL1       -0.3502
     22 C         141.0024  140.1603  164.0166 C.3     1  UNL1        0.1619
     23 C         140.9028  140.3088  162.5273 C.3     1  UNL1        0.1052
     24 C         141.1601  141.6409  161.8876 C.3     1  UNL1        0.0242
     25 C         133.7287  140.8159  155.4174 C.ar    1  UNL1        0.0534
     26 C         133.7058  141.4500  154.0582 C.ar    1  UNL1        0.0045
     27 C         134.9911  141.7082  153.3293 C.ar    1  UNL1        0.0002
     28 C         136.2993  141.3323  153.9596 C.ar    1  UNL1        0.0015
     29 C         136.3222  140.6983  155.3188 C.ar    1  UNL1        0.0179
     30 C         135.0369  140.4401  156.0477 C.ar    1  UNL1        0.0060
     31 C         129.8462  140.4959  156.1749 C.3     1  UNL1        0.1109
     32 N         131.1315  140.7542  155.4460 N.am    1  UNL1       -0.2992
     33 C         132.4434  140.5577  156.1463 C.2     1  UNL1        0.2459
     34 O         132.4699  140.1030  157.5755 O.2     1  UNL1       -0.2701
     35 H         131.1141  141.0526  154.5080 H       1  UNL1        0.1498
@<TRIPOS>BOND
     1    31    32    1
     2    32    33   am
     3    33    34    2
     4    33    25    1
     5    25    26   ar
     6    26    27   ar
     7    27    28   ar
     8    28    29   ar
     9    29     1    1
    10     1     2   ar
    11     2     3   ar
    12     3     4   ar
    13     4     5   ar
    14     5    11    1
    15    11    12    1
    16    12    13    1
    17    13    14    1
    18    14    15    1
    19    15    16    1
    20    16    17    1
    21     5     6   ar
    22     6     7   ar
    23     7    18    1
    24    18    19    1
    25    19    20    1
    26    20    21    1
    27    21    22    1
    28    22    23    1
    29    23    24    1
    30     7     8   ar
    31     8     9   ar
    32     9    10   ar
    33    29    30   ar
    34    30    25   ar
    35    10     1   ar
    36     9     4   ar
    37    16    11    1
    38    23    18    1
    39    32    35    1
@<TRIPOS>MOLECULE
*****
 35 39 0 0 0
SMALL
GASTEIGER

@<TRIPOS>ATOM
      1 C         140.0162  138.9791  161.1627 C.ar    1  UNL1        0.0830
      2 C         141.3856  138.5810  160.6976 C.ar    1  UNL1        0.0193
      3 C         141.7150  138.5981  159.2343 C.ar    1  UNL1        0.0074
      4 C         140.6752  139.0133  158.2362 C.ar    1  UNL1        0.0676
      5 C         141.0047  139.0304  156.7729 C.ar    1  UNL1        0.1376
      6 N         139.9648  139.4455  155.7747 N.ar    1  UNL1       -0.1986
      7 C         138.5954  139.8436  156.2399 C.ar    1  UNL1        0.2227
      8 N         138.2659  139.8266  157.7031 N.ar    1  UNL1       -0.1944
      9 C         139.3058  139.4114  158.7013 C.ar    1  UNL1        0.1678
     10 N         138.9763  139.3943  160.1645 N.ar    1  UNL1       -0.2264
     11 N         142.3740  138.6323  156.3078 N.pl3   1  UNL1       -0.2897
     12 C         143.4343  139.6761  156.1170 C.3     1  UNL1        0.1242
     13 C         144.8037  139.2779  155.6519 C.3     1  UNL1        0.1636
     14 O         145.1128  137.8360  155.3776 O.3     1  UNL1       -0.3502
     15 C         144.0526  136.7922  155.5683 C.3     1  UNL1        0.1618
     16 C         142.6832  137.1903  156.0334 C.3     1  UNL1        0.1038
     17 C         141.6230  136.1465  156.2242 C.3     1  UNL1        0.0241
     18 N         137.5555  140.2588  155.2418 N.pl3   1  UNL1       -0.2747
     19 C         137.1313  141.6950  155.1540 C.3     1  UNL1        0.1256
     20 C         136.0914  142.1101  154.1559 C.3     1  UNL1        0.1637
     21 O         135.4758  141.0892  153.2455 O.3     1  UNL1       -0.3502
     22 C         135.9000  139.6531  153.3333 C.3     1  UNL1        0.1619
     23 C         136.9399  139.2380  154.3314 C.3     1  UNL1        0.1052
     24 C         137.3641  137.8019  154.4192 C.3     1  UNL1        0.0242
     25 C         139.5053  140.1944  164.9059 C.ar    1  UNL1        0.0534
     26 C         139.0276  138.9279  165.5525 C.ar    1  UNL1        0.0045
     27 C         138.8795  137.6786  164.7358 C.ar    1  UNL1        0.0002
     28 C         139.2090  137.6956  163.2725 C.ar    1  UNL1        0.0015
     29 C         139.6867  138.9620  162.6260 C.ar    1  UNL1        0.0179
     30 C         139.8348  140.2114  163.4427 C.ar    1  UNL1        0.0060
     31 C         140.5330  142.6512  167.8484 C.3     1  UNL1        0.1109
     32 N         140.3849  141.4018  167.0317 N.am    1  UNL1       -0.2992
     33 C         139.6534  141.4438  165.7227 C.2     1  UNL1        0.2459
     34 O         139.0702  142.7351  165.2305 O.2     1  UNL1       -0.2701
     35 H         140.7677  140.5543  167.3547 H       1  UNL1        0.1498
@<TRIPOS>BOND
     1    31    32    1
     2    32    33   am
     3    33    34    2
     4    33    25    1
     5    25    26   ar
     6    26    27   ar
     7    27    28   ar
     8    28    29   ar
     9    29     1    1
    10     1     2   ar
    11     2     3   ar
    12     3     4   ar
    13     4     5   ar
    14     5    11    1
    15    11    12    1
    16    12    13    1
    17    13    14    1
    18    14    15    1
    19    15    16    1
    20    16    17    1
    21     5     6   ar
    22     6     7   ar
    23     7    18    1
    24    18    19    1
    25    19    20    1
    26    20    21    1
    27    21    22    1
    28    22    23    1
    29    23    24    1
    30     7     8   ar
    31     8     9   ar
    32     9    10   ar
    33    29    30   ar
    34    30    25   ar
    35    10     1   ar
    36     9     4   ar
    37    16    11    1
    38    23    18    1
    39    32    35    1
@<TRIPOS>MOLECULE
*****
 35 39 0 0 0
SMALL
GASTEIGER

@<TRIPOS>ATOM
      1 C         143.7346  142.3624  159.3638 C.ar    1  UNL1        0.0830
      2 C         142.8997  141.2472  158.8078 C.ar    1  UNL1        0.0193
      3 C         143.3352  140.5333  157.5626 C.ar    1  UNL1        0.0074
      4 C         144.6056  140.9346  156.8734 C.ar    1  UNL1        0.0676
      5 C         145.0411  140.2206  155.6281 C.ar    1  UNL1        0.1376
      6 N         146.3115  140.6219  154.9389 N.ar    1  UNL1       -0.1986
      7 C         147.1465  141.7371  155.4950 C.ar    1  UNL1        0.2227
      8 N         146.7110  142.4510  156.7402 N.ar    1  UNL1       -0.1944
      9 C         145.4406  142.0498  157.4294 C.ar    1  UNL1        0.1678
     10 N         145.0051  142.7637  158.6747 N.ar    1  UNL1       -0.2264
     11 N         144.2061  139.1055  155.0720 N.pl3   1  UNL1       -0.2897
     12 C         144.4014  137.7033  155.5677 C.3     1  UNL1        0.1242
     13 C         143.5664  136.5881  155.0116 C.3     1  UNL1        0.1636
     14 O         142.5362  136.8751  153.9599 O.3     1  UNL1       -0.3502
     15 C         142.3409  138.2773  153.4642 C.3     1  UNL1        0.1618
     16 C         143.1759  139.3925  154.0202 C.3     1  UNL1        0.1038
     17 C         142.9806  140.7947  153.5245 C.3     1  UNL1        0.0241
     18 N         148.4169  142.1384  154.8058 N.pl3   1  UNL1       -0.2747
     19 C         149.7267  141.5570  155.2494 C.3     1  UNL1        0.1256
     20 C         150.9971  141.9583  154.5602 C.3     1  UNL1        0.1637
     21 O         150.9578  142.9409  153.4275 O.3     1  UNL1       -0.3502
     22 C         149.6481  143.5221  152.9840 C.3     1  UNL1        0.1619
     23 C         148.3777  143.1209  153.6731 C.3     1  UNL1        0.1052
     24 C         147.0680  143.7021  153.2296 C.3     1  UNL1        0.0242
     25 C         141.4290  144.1938  162.0247 C.ar    1  UNL1        0.0534
     26 C         142.4282  144.5043  163.0996 C.ar    1  UNL1        0.0045
     27 C         143.8628  144.1008  162.9292 C.ar    1  UNL1        0.0002
     28 C         144.2983  143.3868  161.6840 C.ar    1  UNL1        0.0015
     29 C         143.2992  143.0764  160.6091 C.ar    1  UNL1        0.0179
     30 C         141.8645  143.4798  160.7795 C.ar    1  UNL1        0.0060
     31 C         137.6802  144.2560  163.3258 C.3     1  UNL1        0.1109
     32 N         139.1148  143.8526  163.1554 N.am    1  UNL1       -0.2992
     33 C         139.9944  144.5972  162.1951 C.2     1  UNL1        0.2459
     34 O         139.4393  145.7453  161.4053 O.2     1  UNL1       -0.2701
     35 H         139.4792  143.0991  163.6737 H       1  UNL1        0.1498
@<TRIPOS>BOND
     1    31    32    1
     2    32    33   am
     3    33    34    2
     4    33    25    1
     5    25    26   ar
     6    26    27   ar
     7    27    28   ar
     8    28    29   ar
     9    29     1    1
    10     1     2   ar
    11     2     3   ar
    12     3     4   ar
    13     4     5   ar
    14     5    11    1
    15    11    12    1
    16    12    13    1
    17    13    14    1
    18    14    15    1
    19    15    16    1
    20    16    17    1
    21     5     6   ar
    22     6     7   ar
    23     7    18    1
    24    18    19    1
    25    19    20    1
    26    20    21    1
    27    21    22    1
    28    22    23    1
    29    23    24    1
    30     7     8   ar
    31     8     9   ar
    32     9    10   ar
    33    29    30   ar
    34    30    25   ar
    35    10     1   ar
    36     9     4   ar
    37    16    11    1
    38    23    18    1
    39    32    35    1
