@<TRIPOS>MOLECULE
*****
 36 40 0 0 0
SMALL
GASTEIGER

@<TRIPOS>ATOM
      1 C         137.7260  141.1058  161.4374 C.3     1  UNL1        0.2588
      2 O         138.0823  141.7917  158.9569 O.2     1  UNL1       -0.2708
      3 C         138.4692  141.8973  160.4022 C.2     1  UNL1        0.2689
      4 N         139.5992  142.7942  160.8126 N.am    1  UNL1       -0.2664
      5 H         139.8532  142.8635  161.7613 H       1  UNL1        0.1564
      6 C         140.3424  143.5856  159.7776 C.ar    1  UNL1        0.1344
      7 C         141.6749  143.1075  159.2818 C.ar    1  UNL1        0.0368
      8 C         142.4181  143.8989  158.2468 C.ar    1  UNL1        0.0341
      9 C         141.8288  145.1685  157.7075 C.ar    1  UNL1        0.1593
     10 F         142.5720  145.9599  156.6725 F       1  UNL1       -0.2025
     11 C         140.4963  145.6467  158.2032 C.ar    1  UNL1        0.1298
     12 N         139.7531  144.8552  159.2383 N.ar    1  UNL1       -0.2267
     13 C         137.6139  139.6160  161.3046 C.3     1  UNL1        0.1261
     14 N         138.6960  138.7310  161.8485 N.3     1  UNL1       -0.2650
     15 C         138.7632  137.6589  162.8956 C.3     1  UNL1        0.1033
     16 C         140.2263  137.4794  162.6177 C.3     1  UNL1        0.1423
     17 O         141.3084  136.5944  163.1616 O.3     1  UNL1       -0.3816
     18 C         140.1590  138.5513  161.5707 C.3     1  UNL1        0.1033
     19 H         140.9399  136.0189  163.8500 H       1  UNL1        0.2105
     20 O         137.0949  141.8044  162.6052 O.3     1  UNL1       -0.4529
     21 C         137.9428  142.6087  163.5456 C.ar    1  UNL1        0.2312
     22 N         138.1123  144.0831  163.3281 N.ar    1  UNL1       -0.1892
     23 C         138.9602  144.8873  164.2684 C.ar    1  UNL1        0.2029
     24 N         139.6385  144.2171  165.4263 N.ar    1  UNL1       -0.2046
     25 C         139.4690  142.7427  165.6439 C.ar    1  UNL1        0.1715
     26 C         138.6211  141.9385  164.7035 C.ar    1  UNL1        0.1098
     27 C         138.6385  140.5123  165.1681 C.ar    1  UNL1        0.1283
     28 N         139.4971  140.4351  166.3956 N.ar    1  UNL1       -0.1619
     29 N         140.0103  141.8136  166.6896 N.ar    1  UNL1       -0.2111
     30 C         140.9075  142.1959  167.8294 C.ar    1  UNL1        0.0949
     31 C         140.3224  142.7782  169.0818 C.ar    1  UNL1        0.0201
     32 C         141.2195  143.1604  170.2215 C.ar    1  UNL1        0.0016
     33 C         142.7018  142.9604  170.1089 C.ar    1  UNL1        0.0010
     34 C         143.2869  142.3781  168.8565 C.ar    1  UNL1        0.0129
     35 C         142.3898  141.9958  167.7168 C.ar    1  UNL1        0.0753
     36 CL        142.9750  141.4135  166.4644 Cl      1  UNL1       -0.0807
@<TRIPOS>BOND
     1     2     3    2
     2     3     4   am
     3     4     6    1
     4     6     7   ar
     5     7     8   ar
     6     8     9   ar
     7     9    10    1
     8     9    11   ar
     9    11    12   ar
    10     3     1    1
    11     1    13    1
    12    13    14    1
    13    14    15    1
    14    15    16    1
    15    16    17    1
    16    16    18    1
    17     1    20    1
    18    20    21    1
    19    21    22   ar
    20    22    23   ar
    21    23    24   ar
    22    24    25   ar
    23    25    26   ar
    24    26    27   ar
    25    27    28   ar
    26    28    29   ar
    27    29    30    1
    28    30    31   ar
    29    31    32   ar
    30    32    33   ar
    31    33    34   ar
    32    34    35   ar
    33    35    36    1
    34    12     6   ar
    35    18    14    1
    36    26    21   ar
    37    35    30   ar
    38    29    25   ar
    39     4     5    1
    40    17    19    1
@<TRIPOS>MOLECULE
*****
 36 40 0 0 0
SMALL
GASTEIGER

@<TRIPOS>ATOM
      1 C         142.3397  139.6884  167.2827 C.3     1  UNL1        0.2588
      2 O         139.8472  139.8954  166.5794 O.2     1  UNL1       -0.2708
      3 C         141.2468  140.4348  166.5767 C.2     1  UNL1        0.2689
      4 N         141.5536  141.7207  165.8678 N.am    1  UNL1       -0.2664
      5 H         142.4723  142.0747  165.8660 H       1  UNL1        0.1564
      6 C         140.4608  142.4671  165.1618 C.ar    1  UNL1        0.1344
      7 C         139.7561  143.5965  165.8531 C.ar    1  UNL1        0.0368
      8 C         138.6633  144.3429  165.1471 C.ar    1  UNL1        0.0341
      9 C         138.2751  143.9600  163.7496 C.ar    1  UNL1        0.1593
     10 F         137.1823  144.7064  163.0436 F       1  UNL1       -0.2025
     11 C         138.9798  142.8306  163.0583 C.ar    1  UNL1        0.1298
     12 N         140.0727  142.0841  163.7644 N.ar    1  UNL1       -0.2267
     13 C         142.4320  139.7318  168.7792 C.3     1  UNL1        0.1261
     14 N         142.6418  141.0413  169.4800 N.3     1  UNL1       -0.2650
     15 C         143.6045  142.1820  169.3307 C.3     1  UNL1        0.1033
     16 C         142.9385  142.8933  170.4711 C.3     1  UNL1        0.1423
     17 O         143.1484  144.2028  171.1719 O.3     1  UNL1       -0.3816
     18 C         141.9759  141.7527  170.6204 C.3     1  UNL1        0.1033
     19 H         143.8957  144.6701  170.7670 H       1  UNL1        0.2105
     20 O         143.3403  138.8985  166.4922 O.3     1  UNL1       -0.4529
     21 C         143.5480  139.1944  165.0364 C.ar    1  UNL1        0.2312
     22 N         144.6394  140.1307  164.6096 N.ar    1  UNL1       -0.1892
     23 C         144.8471  140.4265  163.1538 C.ar    1  UNL1        0.2029
     24 N         143.9633  139.7860  162.1248 N.ar    1  UNL1       -0.2046
     25 C         142.8720  138.8497  162.5516 C.ar    1  UNL1        0.1715
     26 C         142.6643  138.5539  164.0074 C.ar    1  UNL1        0.1098
     27 C         141.5156  137.5967  164.1266 C.ar    1  UNL1        0.1283
     28 N         141.0133  137.3009  162.7445 N.ar    1  UNL1       -0.1619
     29 N         141.8516  138.0754  161.7711 N.ar    1  UNL1       -0.2111
     30 C         141.6967  138.0754  160.2791 C.ar    1  UNL1        0.0949
     31 C         142.8116  137.5751  159.4093 C.ar    1  UNL1        0.0201
     32 C         142.6568  137.5752  157.9173 C.ar    1  UNL1        0.0016
     33 C         141.3869  138.0756  157.2951 C.ar    1  UNL1        0.0010
     34 C         140.2720  138.5758  158.1649 C.ar    1  UNL1        0.0129
     35 C         140.4269  138.5758  159.6569 C.ar    1  UNL1        0.0753
     36 CL        139.3119  139.0761  160.5267 Cl      1  UNL1       -0.0807
@<TRIPOS>BOND
     1     2     3    2
     2     3     4   am
     3     4     6    1
     4     6     7   ar
     5     7     8   ar
     6     8     9   ar
     7     9    10    1
     8     9    11   ar
     9    11    12   ar
    10     3     1    1
    11     1    13    1
    12    13    14    1
    13    14    15    1
    14    15    16    1
    15    16    17    1
    16    16    18    1
    17     1    20    1
    18    20    21    1
    19    21    22   ar
    20    22    23   ar
    21    23    24   ar
    22    24    25   ar
    23    25    26   ar
    24    26    27   ar
    25    27    28   ar
    26    28    29   ar
    27    29    30    1
    28    30    31   ar
    29    31    32   ar
    30    32    33   ar
    31    33    34   ar
    32    34    35   ar
    33    35    36    1
    34    12     6   ar
    35    18    14    1
    36    26    21   ar
    37    35    30   ar
    38    29    25   ar
    39     4     5    1
    40    17    19    1
@<TRIPOS>MOLECULE
*****
 36 40 0 0 0
SMALL
GASTEIGER

@<TRIPOS>ATOM
      1 C         137.9497  140.6640  161.5901 C.3     1  UNL1        0.2588
      2 O         137.7383  143.2323  161.2592 O.2     1  UNL1       -0.2708
      3 C         138.2804  141.9057  160.8162 C.2     1  UNL1        0.2689
      4 N         139.1531  141.8208  159.5991 N.am    1  UNL1       -0.2664
      5 H         139.5089  140.9501  159.3083 H       1  UNL1        0.1564
      6 C         139.4838  143.0624  158.8252 C.ar    1  UNL1        0.1344
      7 C         139.0653  143.1853  157.3900 C.ar    1  UNL1        0.0368
      8 C         139.3960  144.4269  156.6161 C.ar    1  UNL1        0.0341
      9 C         140.1452  145.5457  157.2773 C.ar    1  UNL1        0.1593
     10 F         140.4758  146.7873  156.5034 F       1  UNL1       -0.2025
     11 C         140.5637  145.4227  158.7125 C.ar    1  UNL1        0.1298
     12 N         140.2330  144.1810  159.4864 N.ar    1  UNL1       -0.2267
     13 C         138.2602  139.3151  161.0122 C.3     1  UNL1        0.1261
     14 N         139.6400  138.7420  161.1446 N.3     1  UNL1       -0.2650
     15 C         140.3430  137.8934  162.1624 C.3     1  UNL1        0.1033
     16 C         141.5914  137.9315  161.3318 C.3     1  UNL1        0.1423
     17 O         142.9713  137.3584  161.4642 O.3     1  UNL1       -0.3816
     18 C         140.8886  138.7801  160.3142 C.3     1  UNL1        0.1033
     19 H         143.0335  136.8525  162.2896 H       1  UNL1        0.2105
     20 O         137.3086  140.7714  162.9419 O.3     1  UNL1       -0.4529
     21 C         138.1007  140.4523  164.1752 C.ar    1  UNL1        0.2312
     22 N         138.1692  139.0409  164.6783 N.ar    1  UNL1       -0.1892
     23 C         138.9613  138.7219  165.9114 C.ar    1  UNL1        0.2029
     24 N         139.6850  139.8143  166.6415 N.ar    1  UNL1       -0.2046
     25 C         139.6165  141.2257  166.1384 C.ar    1  UNL1        0.1715
     26 C         138.8244  141.5447  164.9052 C.ar    1  UNL1        0.1098
     27 C         138.9393  143.0182  164.6487 C.ar    1  UNL1        0.1283
     28 N         139.8025  143.6098  165.7234 N.ar    1  UNL1       -0.1619
     29 N         140.2210  142.5020  166.6440 N.ar    1  UNL1       -0.2111
     30 C         141.0912  142.6452  167.8574 C.ar    1  UNL1        0.0949
     31 C         140.5349  143.2500  169.1122 C.ar    1  UNL1        0.0201
     32 C         141.4051  143.3933  170.3255 C.ar    1  UNL1        0.0016
     33 C         142.8318  142.9318  170.2840 C.ar    1  UNL1        0.0010
     34 C         143.3881  142.3270  169.0292 C.ar    1  UNL1        0.0129
     35 C         142.5178  142.1837  167.8159 C.ar    1  UNL1        0.0753
     36 CL        143.0742  141.5789  166.5610 Cl      1  UNL1       -0.0807
@<TRIPOS>BOND
     1     2     3    2
     2     3     4   am
     3     4     6    1
     4     6     7   ar
     5     7     8   ar
     6     8     9   ar
     7     9    10    1
     8     9    11   ar
     9    11    12   ar
    10     3     1    1
    11     1    13    1
    12    13    14    1
    13    14    15    1
    14    15    16    1
    15    16    17    1
    16    16    18    1
    17     1    20    1
    18    20    21    1
    19    21    22   ar
    20    22    23   ar
    21    23    24   ar
    22    24    25   ar
    23    25    26   ar
    24    26    27   ar
    25    27    28   ar
    26    28    29   ar
    27    29    30    1
    28    30    31   ar
    29    31    32   ar
    30    32    33   ar
    31    33    34   ar
    32    34    35   ar
    33    35    36    1
    34    12     6   ar
    35    18    14    1
    36    26    21   ar
    37    35    30   ar
    38    29    25   ar
    39     4     5    1
    40    17    19    1
@<TRIPOS>MOLECULE
*****
 36 40 0 0 0
SMALL
GASTEIGER

@<TRIPOS>ATOM
      1 C         139.0774  138.4527  162.5552 C.3     1  UNL1        0.2588
      2 O         139.1787  137.3546  164.9077 O.2     1  UNL1       -0.2708
      3 C         139.4497  138.5227  164.0067 C.2     1  UNL1        0.2689
      4 N         140.0929  139.7610  164.5570 N.am    1  UNL1       -0.2664
      5 H         140.2708  140.5278  163.9656 H       1  UNL1        0.1564
      6 C         140.4653  139.8312  166.0083 C.ar    1  UNL1        0.1344
      7 C         139.4083  140.0831  167.0424 C.ar    1  UNL1        0.0368
      8 C         139.7806  140.1532  168.4938 C.ar    1  UNL1        0.0341
      9 C         141.2100  139.9714  168.9110 C.ar    1  UNL1        0.1593
     10 F         141.5823  140.0415  170.3624 F       1  UNL1       -0.2025
     11 C         142.2669  139.7195  167.8769 C.ar    1  UNL1        0.1298
     12 N         141.8945  139.6493  166.4255 N.ar    1  UNL1       -0.2267
     13 C         137.8839  139.2076  162.0498 C.3     1  UNL1        0.1261
     14 N         137.8244  140.6996  162.1930 N.3     1  UNL1       -0.2650
     15 C         137.2730  141.6456  163.2183 C.3     1  UNL1        0.1033
     16 C         137.7403  142.8095  162.3956 C.3     1  UNL1        0.1423
     17 O         137.6808  144.3015  162.5388 O.3     1  UNL1       -0.3816
     18 C         138.2916  141.8636  161.3704 C.3     1  UNL1        0.1033
     19 H         137.2289  144.5291  163.3663 H       1  UNL1        0.2105
     20 O         139.8986  137.6276  161.6093 O.3     1  UNL1       -0.4529
     21 C         141.2908  138.0580  161.2532 C.ar    1  UNL1        0.2312
     22 N         142.4363  137.7161  162.1592 N.ar    1  UNL1       -0.1892
     23 C         143.8284  138.1465  161.8031 C.ar    1  UNL1        0.2029
     24 N         144.0749  138.9188  160.5411 N.ar    1  UNL1       -0.2046
     25 C         142.9294  139.2607  159.6351 C.ar    1  UNL1        0.1715
     26 C         141.5373  138.8303  159.9912 C.ar    1  UNL1        0.1098
     27 C         140.6134  139.3091  158.9108 C.ar    1  UNL1        0.1283
     28 N         141.4345  140.0354  157.8870 N.ar    1  UNL1       -0.1619
     29 N         142.8659  140.0055  158.3347 N.ar    1  UNL1       -0.2111
     30 C         144.0295  140.6136  157.6092 C.ar    1  UNL1        0.0949
     31 C         144.5687  139.9572  156.3730 C.ar    1  UNL1        0.0201
     32 C         145.7323  140.5653  155.6476 C.ar    1  UNL1        0.0016
     33 C         146.3567  141.8299  156.1584 C.ar    1  UNL1        0.0010
     34 C         145.8174  142.4863  157.3946 C.ar    1  UNL1        0.0129
     35 C         144.6538  141.8782  158.1200 C.ar    1  UNL1        0.0753
     36 CL        144.1146  142.5347  159.3562 Cl      1  UNL1       -0.0807
@<TRIPOS>BOND
     1     2     3    2
     2     3     4   am
     3     4     6    1
     4     6     7   ar
     5     7     8   ar
     6     8     9   ar
     7     9    10    1
     8     9    11   ar
     9    11    12   ar
    10     3     1    1
    11     1    13    1
    12    13    14    1
    13    14    15    1
    14    15    16    1
    15    16    17    1
    16    16    18    1
    17     1    20    1
    18    20    21    1
    19    21    22   ar
    20    22    23   ar
    21    23    24   ar
    22    24    25   ar
    23    25    26   ar
    24    26    27   ar
    25    27    28   ar
    26    28    29   ar
    27    29    30    1
    28    30    31   ar
    29    31    32   ar
    30    32    33   ar
    31    33    34   ar
    32    34    35   ar
    33    35    36    1
    34    12     6   ar
    35    18    14    1
    36    26    21   ar
    37    35    30   ar
    38    29    25   ar
    39     4     5    1
    40    17    19    1
@<TRIPOS>MOLECULE
*****
 36 40 0 0 0
SMALL
GASTEIGER

@<TRIPOS>ATOM
      1 C         139.3528  138.2745  161.2354 C.3     1  UNL1        0.2588
      2 O         139.2497  138.6052  158.6605 O.2     1  UNL1       -0.2708
      3 C         140.0488  138.3905  159.9116 C.2     1  UNL1        0.2689
      4 N         141.5438  138.2917  159.8390 N.am    1  UNL1       -0.2664
      5 H         142.0682  138.1507  160.6602 H       1  UNL1        0.1564
      6 C         142.2397  138.4076  158.5154 C.ar    1  UNL1        0.1344
      7 C         142.6179  137.1706  157.7559 C.ar    1  UNL1        0.0368
      8 C         143.3138  137.2865  156.4323 C.ar    1  UNL1        0.0341
      9 C         143.6316  138.6395  155.8679 C.ar    1  UNL1        0.1593
     10 F         144.3276  138.7555  154.5443 F       1  UNL1       -0.2025
     11 C         143.2534  139.8766  156.6274 C.ar    1  UNL1        0.1298
     12 N         142.5575  139.7606  157.9511 N.ar    1  UNL1       -0.2267
     13 C         138.0119  138.9159  161.4364 C.3     1  UNL1        0.1261
     14 N         137.9161  140.3924  161.6828 N.3     1  UNL1       -0.2650
     15 C         137.4273  141.2497  162.8126 C.3     1  UNL1        0.1033
     16 C         137.7806  142.4805  162.0313 C.3     1  UNL1        0.1423
     17 O         137.6848  143.9570  162.2777 O.3     1  UNL1       -0.3816
     18 C         138.2693  141.6233  160.9017 C.3     1  UNL1        0.1033
     19 H         137.3011  144.1143  163.1546 H       1  UNL1        0.2105
     20 O         139.9979  137.5172  162.3580 O.3     1  UNL1       -0.4529
     21 C         140.8035  138.2486  163.3906 C.ar    1  UNL1        0.2312
     22 N         142.2733  138.4631  163.1815 N.ar    1  UNL1       -0.1892
     23 C         143.0788  139.1945  164.2140 C.ar    1  UNL1        0.2029
     24 N         142.4146  139.7113  165.4557 N.ar    1  UNL1       -0.2046
     25 C         140.9449  139.4967  165.6648 C.ar    1  UNL1        0.1715
     26 C         140.1393  138.7654  164.6323 C.ar    1  UNL1        0.1098
     27 C         138.7186  138.7053  165.1098 C.ar    1  UNL1        0.1283
     28 N         138.6461  139.3996  166.4374 N.ar    1  UNL1       -0.1619
     29 N         140.0220  139.8887  166.7805 N.ar    1  UNL1       -0.2111
     30 C         140.4074  140.6382  168.0213 C.ar    1  UNL1        0.0949
     31 C         140.6412  139.8960  169.3037 C.ar    1  UNL1        0.0201
     32 C         141.0266  140.6455  170.5445 C.ar    1  UNL1        0.0016
     33 C         141.1783  142.1372  170.5030 C.ar    1  UNL1        0.0010
     34 C         140.9445  142.8794  169.2207 C.ar    1  UNL1        0.0129
     35 C         140.5591  142.1299  167.9798 C.ar    1  UNL1        0.0753
     36 CL        140.3254  142.8722  166.6975 Cl      1  UNL1       -0.0807
@<TRIPOS>BOND
     1     2     3    2
     2     3     4   am
     3     4     6    1
     4     6     7   ar
     5     7     8   ar
     6     8     9   ar
     7     9    10    1
     8     9    11   ar
     9    11    12   ar
    10     3     1    1
    11     1    13    1
    12    13    14    1
    13    14    15    1
    14    15    16    1
    15    16    17    1
    16    16    18    1
    17     1    20    1
    18    20    21    1
    19    21    22   ar
    20    22    23   ar
    21    23    24   ar
    22    24    25   ar
    23    25    26   ar
    24    26    27   ar
    25    27    28   ar
    26    28    29   ar
    27    29    30    1
    28    30    31   ar
    29    31    32   ar
    30    32    33   ar
    31    33    34   ar
    32    34    35   ar
    33    35    36    1
    34    12     6   ar
    35    18    14    1
    36    26    21   ar
    37    35    30   ar
    38    29    25   ar
    39     4     5    1
    40    17    19    1
@<TRIPOS>MOLECULE
*****
 36 40 0 0 0
SMALL
GASTEIGER

@<TRIPOS>ATOM
      1 C         139.6065  138.3494  163.9397 C.3     1  UNL1        0.2588
      2 O         141.4171  138.7197  165.7659 O.2     1  UNL1       -0.2708
      3 C         140.0378  138.9736  165.2338 C.2     1  UNL1        0.2689
      4 N         139.0898  139.8515  165.9957 N.am    1  UNL1       -0.2664
      5 H         138.1845  140.0181  165.6464 H       1  UNL1        0.1564
      6 C         139.5210  140.4756  167.2897 C.ar    1  UNL1        0.1344
      7 C         140.2697  141.7754  167.2827 C.ar    1  UNL1        0.0368
      8 C         140.7009  142.3995  168.5767 C.ar    1  UNL1        0.0341
      9 C         140.3835  141.7239  169.8778 C.ar    1  UNL1        0.1593
     10 F         140.8147  142.3480  171.1718 F       1  UNL1       -0.2025
     11 C         139.6348  140.4241  169.8848 C.ar    1  UNL1        0.1298
     12 N         139.2035  139.8000  168.5907 N.ar    1  UNL1       -0.2267
     13 C         140.4843  137.3365  163.2663 C.3     1  UNL1        0.1261
     14 N         141.6878  137.7843  162.4910 N.3     1  UNL1       -0.2650
     15 C         142.0359  137.8812  161.0351 C.3     1  UNL1        0.1033
     16 C         143.3898  138.4174  161.3946 C.3     1  UNL1        0.1423
     17 O         144.5934  138.8651  160.6193 O.3     1  UNL1       -0.3816
     18 C         143.0418  138.3204  162.8504 C.3     1  UNL1        0.1033
     19 H         144.4191  138.7723  159.6696 H       1  UNL1        0.2105
     20 O         138.2975  138.7383  163.3191 O.3     1  UNL1       -0.4529
     21 C         138.1673  140.0496  162.6026 C.ar    1  UNL1        0.2312
     22 N         137.8658  141.2996  163.3749 N.ar    1  UNL1       -0.1892
     23 C         137.7356  142.6109  162.6583 C.ar    1  UNL1        0.2029
     24 N         137.9070  142.6722  161.1694 N.ar    1  UNL1       -0.2046
     25 C         138.2086  141.4222  160.3971 C.ar    1  UNL1        0.1715
     26 C         138.3387  140.1109  161.1136 C.ar    1  UNL1        0.1098
     27 C         138.6386  139.0529  160.0934 C.ar    1  UNL1        0.1283
     28 N         138.6938  139.7104  158.7464 N.ar    1  UNL1       -0.1619
     29 N         138.4280  141.1747  158.9340 N.ar    1  UNL1       -0.2111
     30 C         138.3886  142.2097  157.8491 C.ar    1  UNL1        0.0949
     31 C         139.4260  143.2923  157.8072 C.ar    1  UNL1        0.0201
     32 C         139.3866  144.3274  156.7223 C.ar    1  UNL1        0.0016
     33 C         138.3097  144.2799  155.6791 C.ar    1  UNL1        0.0010
     34 C         137.2724  143.1973  155.7210 C.ar    1  UNL1        0.0129
     35 C         137.3118  142.1622  156.8059 C.ar    1  UNL1        0.0753
     36 CL        136.2744  141.0796  156.8477 Cl      1  UNL1       -0.0807
@<TRIPOS>BOND
     1     2     3    2
     2     3     4   am
     3     4     6    1
     4     6     7   ar
     5     7     8   ar
     6     8     9   ar
     7     9    10    1
     8     9    11   ar
     9    11    12   ar
    10     3     1    1
    11     1    13    1
    12    13    14    1
    13    14    15    1
    14    15    16    1
    15    16    17    1
    16    16    18    1
    17     1    20    1
    18    20    21    1
    19    21    22   ar
    20    22    23   ar
    21    23    24   ar
    22    24    25   ar
    23    25    26   ar
    24    26    27   ar
    25    27    28   ar
    26    28    29   ar
    27    29    30    1
    28    30    31   ar
    29    31    32   ar
    30    32    33   ar
    31    33    34   ar
    32    34    35   ar
    33    35    36    1
    34    12     6   ar
    35    18    14    1
    36    26    21   ar
    37    35    30   ar
    38    29    25   ar
    39     4     5    1
    40    17    19    1
@<TRIPOS>MOLECULE
*****
 36 40 0 0 0
SMALL
GASTEIGER

@<TRIPOS>ATOM
      1 C         142.7934  138.3431  156.2301 C.3     1  UNL1        0.2588
      2 O         144.7888  136.8239  155.5514 O.2     1  UNL1       -0.2708
      3 C         143.4158  136.9816  156.1344 C.2     1  UNL1        0.2689
      4 N         142.6651  135.7779  156.6217 N.am    1  UNL1       -0.2664
      5 H         141.7639  135.8814  157.0044 H       1  UNL1        0.1564
      6 C         143.2874  134.4165  156.5261 C.ar    1  UNL1        0.1344
      7 C         143.0995  133.5912  155.2877 C.ar    1  UNL1        0.0368
      8 C         143.7218  132.2298  155.1921 C.ar    1  UNL1        0.0341
      9 C         144.5322  131.6936  156.3348 C.ar    1  UNL1        0.1593
     10 F         145.1545  130.3321  156.2392 F       1  UNL1       -0.2025
     11 C         144.7201  132.5188  157.5732 C.ar    1  UNL1        0.1298
     12 N         144.0977  133.8803  157.6688 N.ar    1  UNL1       -0.2267
     13 C         143.3719  139.4885  155.4534 C.3     1  UNL1        0.1261
     14 N         144.2306  140.5057  156.1448 N.3     1  UNL1       -0.2650
     15 C         144.5966  140.7915  157.5712 C.3     1  UNL1        0.1033
     16 C         145.4449  141.9443  157.1225 C.3     1  UNL1        0.1423
     17 O         146.3036  142.9615  157.8139 O.3     1  UNL1       -0.3816
     18 C         145.0790  141.6585  155.6962 C.3     1  UNL1        0.1033
     19 H         146.2807  142.8069  158.7712 H       1  UNL1        0.2105
     20 O         141.5924  138.5590  157.1024 O.3     1  UNL1       -0.4529
     21 C         141.7055  138.3928  158.5889 C.ar    1  UNL1        0.2312
     22 N         142.9909  137.9119  159.1942 N.ar    1  UNL1       -0.1892
     23 C         143.1040  137.7457  160.6806 C.ar    1  UNL1        0.2029
     24 N         141.9316  138.0604  161.5618 N.ar    1  UNL1       -0.2046
     25 C         140.6462  138.5413  160.9566 C.ar    1  UNL1        0.1715
     26 C         140.5331  138.7075  159.4701 C.ar    1  UNL1        0.1098
     27 C         139.1485  139.1958  159.1622 C.ar    1  UNL1        0.1283
     28 N         138.4060  139.3313  160.4584 N.ar    1  UNL1       -0.1619
     29 N         139.3315  138.9268  161.5674 N.ar    1  UNL1       -0.2111
     30 C         139.0006  138.9107  163.0303 C.ar    1  UNL1        0.0949
     31 C         139.0588  137.6236  163.7983 C.ar    1  UNL1        0.0201
     32 C         138.7278  137.6075  165.2613 C.ar    1  UNL1        0.0016
     33 C         138.3387  138.8785  165.9563 C.ar    1  UNL1        0.0010
     34 C         138.2805  140.1656  165.1883 C.ar    1  UNL1        0.0129
     35 C         138.6115  140.1818  163.7253 C.ar    1  UNL1        0.0753
     36 CL        138.5533  141.4689  162.9574 Cl      1  UNL1       -0.0807
@<TRIPOS>BOND
     1     2     3    2
     2     3     4   am
     3     4     6    1
     4     6     7   ar
     5     7     8   ar
     6     8     9   ar
     7     9    10    1
     8     9    11   ar
     9    11    12   ar
    10     3     1    1
    11     1    13    1
    12    13    14    1
    13    14    15    1
    14    15    16    1
    15    16    17    1
    16    16    18    1
    17     1    20    1
    18    20    21    1
    19    21    22   ar
    20    22    23   ar
    21    23    24   ar
    22    24    25   ar
    23    25    26   ar
    24    26    27   ar
    25    27    28   ar
    26    28    29   ar
    27    29    30    1
    28    30    31   ar
    29    31    32   ar
    30    32    33   ar
    31    33    34   ar
    32    34    35   ar
    33    35    36    1
    34    12     6   ar
    35    18    14    1
    36    26    21   ar
    37    35    30   ar
    38    29    25   ar
    39     4     5    1
    40    17    19    1
@<TRIPOS>MOLECULE
*****
 36 40 0 0 0
SMALL
GASTEIGER

@<TRIPOS>ATOM
      1 C         141.1756  138.3781  160.4752 C.3     1  UNL1        0.2588
      2 O         143.7430  138.3953  160.0775 O.2     1  UNL1       -0.2708
      3 C         142.3838  138.9726  159.8143 C.2     1  UNL1        0.2689
      4 N         142.2329  140.1445  158.8902 N.am    1  UNL1       -0.2664
      5 H         141.3408  140.5234  158.7174 H       1  UNL1        0.1564
      6 C         143.4410  140.7390  158.2293 C.ar    1  UNL1        0.1344
      7 C         143.9819  140.1311  156.9691 C.ar    1  UNL1        0.0368
      8 C         145.1901  140.7257  156.3082 C.ar    1  UNL1        0.0341
      9 C         145.8574  141.9281  156.9075 C.ar    1  UNL1        0.1593
     10 F         147.0656  142.5226  156.2466 F       1  UNL1       -0.2025
     11 C         145.3165  142.5359  158.1676 C.ar    1  UNL1        0.1298
     12 N         144.1083  141.9413  158.8285 N.ar    1  UNL1       -0.2267
     13 C         139.8035  138.7116  159.9691 C.3     1  UNL1        0.1261
     14 N         139.1649  140.0177  160.3382 N.3     1  UNL1       -0.2650
     15 C         138.9893  140.7900  161.6121 C.3     1  UNL1        0.1033
     16 C         138.2618  141.8648  160.8601 C.3     1  UNL1        0.1423
     17 O         137.6231  143.1709  161.2292 O.3     1  UNL1       -0.3816
     18 C         138.4373  141.0925  159.5863 C.3     1  UNL1        0.1033
     19 H         137.7235  143.3221  162.1821 H       1  UNL1        0.2105
     20 O         141.3395  137.4501  161.6423 O.3     1  UNL1       -0.4529
     21 C         140.9279  137.8920  163.0154 C.ar    1  UNL1        0.2312
     22 N         139.5235  137.6601  163.4885 N.ar    1  UNL1       -0.1892
     23 C         139.1121  138.1019  164.8616 C.ar    1  UNL1        0.2029
     24 N         140.1050  138.7758  165.7616 N.ar    1  UNL1       -0.2046
     25 C         141.5094  139.0078  165.2885 C.ar    1  UNL1        0.1715
     26 C         141.9209  138.5659  163.9154 C.ar    1  UNL1        0.1098
     27 C         143.3644  138.9267  163.7255 C.ar    1  UNL1        0.1283
     28 N         143.8451  139.5916  164.9812 N.ar    1  UNL1       -0.1619
     29 N         142.6986  139.6417  165.9472 N.ar    1  UNL1       -0.2111
     30 C         142.7349  140.2235  167.3293 C.ar    1  UNL1        0.0949
     31 C         142.5969  139.3275  168.5242 C.ar    1  UNL1        0.0201
     32 C         142.6333  139.9093  169.9063 C.ar    1  UNL1        0.0016
     33 C         142.8076  141.3874  170.0934 C.ar    1  UNL1        0.0010
     34 C         142.9457  142.2834  168.8985 C.ar    1  UNL1        0.0129
     35 C         142.9093  141.7016  167.5164 C.ar    1  UNL1        0.0753
     36 CL        143.0474  142.5977  166.3215 Cl      1  UNL1       -0.0807
@<TRIPOS>BOND
     1     2     3    2
     2     3     4   am
     3     4     6    1
     4     6     7   ar
     5     7     8   ar
     6     8     9   ar
     7     9    10    1
     8     9    11   ar
     9    11    12   ar
    10     3     1    1
    11     1    13    1
    12    13    14    1
    13    14    15    1
    14    15    16    1
    15    16    17    1
    16    16    18    1
    17     1    20    1
    18    20    21    1
    19    21    22   ar
    20    22    23   ar
    21    23    24   ar
    22    24    25   ar
    23    25    26   ar
    24    26    27   ar
    25    27    28   ar
    26    28    29   ar
    27    29    30    1
    28    30    31   ar
    29    31    32   ar
    30    32    33   ar
    31    33    34   ar
    32    34    35   ar
    33    35    36    1
    34    12     6   ar
    35    18    14    1
    36    26    21   ar
    37    35    30   ar
    38    29    25   ar
    39     4     5    1
    40    17    19    1
@<TRIPOS>MOLECULE
*****
 36 40 0 0 0
SMALL
GASTEIGER

@<TRIPOS>ATOM
      1 C         143.6443  140.0873  159.6081 C.3     1  UNL1        0.2588
      2 O         141.1869  140.9083  159.8022 O.2     1  UNL1       -0.2708
      3 C         142.6589  141.1814  159.8946 C.2     1  UNL1        0.2689
      4 N         143.1457  142.5487  160.2737 N.am    1  UNL1       -0.2664
      5 H         144.1118  142.7280  160.3344 H       1  UNL1        0.1564
      6 C         142.1604  143.6428  160.5602 C.ar    1  UNL1        0.1344
      7 C         141.9691  144.1306  161.9657 C.ar    1  UNL1        0.0368
      8 C         140.9838  145.2247  162.2523 C.ar    1  UNL1        0.0341
      9 C         140.1899  145.8311  161.1334 C.ar    1  UNL1        0.1593
     10 F         139.2046  146.9252  161.4199 F       1  UNL1       -0.2025
     11 C         140.3812  145.3433  159.7279 C.ar    1  UNL1        0.1298
     12 N         141.3665  144.2491  159.4413 N.ar    1  UNL1       -0.2267
     13 C         143.9024  139.6621  158.1930 C.3     1  UNL1        0.1261
     14 N         143.1014  138.5482  157.5866 N.3     1  UNL1       -0.2650
     15 C         141.8883  137.7679  157.9984 C.3     1  UNL1        0.1033
     16 C         141.9687  136.9729  156.7290 C.3     1  UNL1        0.1423
     17 O         141.1678  135.8590  156.1226 O.3     1  UNL1       -0.3816
     18 C         143.1818  137.7531  156.3172 C.3     1  UNL1        0.1033
     19 H         140.4375  135.6253  156.7167 H       1  UNL1        0.2105
     20 O         144.3715  139.4184  160.7367 O.3     1  UNL1       -0.4529
     21 C         144.2960  139.9905  162.1212 C.ar    1  UNL1        0.2312
     22 N         145.1713  141.1471  162.5036 N.ar    1  UNL1       -0.1892
     23 C         145.0958  141.7192  163.8881 C.ar    1  UNL1        0.2029
     24 N         144.1449  141.1348  164.8903 N.ar    1  UNL1       -0.2046
     25 C         143.2696  139.9782  164.5079 C.ar    1  UNL1        0.1715
     26 C         143.3451  139.4061  163.1234 C.ar    1  UNL1        0.1098
     27 C         142.3657  138.2733  163.0359 C.ar    1  UNL1        0.1283
     28 N         141.6849  138.1454  164.3663 N.ar    1  UNL1       -0.1619
     29 N         142.2436  139.1990  165.2761 N.ar    1  UNL1       -0.2111
     30 C         141.8459  139.4326  166.7034 C.ar    1  UNL1        0.0949
     31 C         142.8300  139.1803  167.8071 C.ar    1  UNL1        0.0201
     32 C         142.4324  139.4138  169.2344 C.ar    1  UNL1        0.0016
     33 C         141.0506  139.8997  169.5582 C.ar    1  UNL1        0.0010
     34 C         140.0666  140.1519  168.4546 C.ar    1  UNL1        0.0129
     35 C         140.4642  139.9184  167.0272 C.ar    1  UNL1        0.0753
     36 CL        139.4801  140.1707  165.9237 Cl      1  UNL1       -0.0807
@<TRIPOS>BOND
     1     2     3    2
     2     3     4   am
     3     4     6    1
     4     6     7   ar
     5     7     8   ar
     6     8     9   ar
     7     9    10    1
     8     9    11   ar
     9    11    12   ar
    10     3     1    1
    11     1    13    1
    12    13    14    1
    13    14    15    1
    14    15    16    1
    15    16    17    1
    16    16    18    1
    17     1    20    1
    18    20    21    1
    19    21    22   ar
    20    22    23   ar
    21    23    24   ar
    22    24    25   ar
    23    25    26   ar
    24    26    27   ar
    25    27    28   ar
    26    28    29   ar
    27    29    30    1
    28    30    31   ar
    29    31    32   ar
    30    32    33   ar
    31    33    34   ar
    32    34    35   ar
    33    35    36    1
    34    12     6   ar
    35    18    14    1
    36    26    21   ar
    37    35    30   ar
    38    29    25   ar
    39     4     5    1
    40    17    19    1
