@<TRIPOS>MOLECULE
*****
 30 33 0 0 0
SMALL
GASTEIGER

@<TRIPOS>ATOM
      1 N         140.3021  139.7103  161.2221 N.3     1  UNL1       -0.2695
      2 C         140.3295  139.0093  162.5480 C.3     1  UNL1        0.0939
      3 C         141.5610  139.0683  163.4023 C.3     1  UNL1        0.1107
      4 N         142.7652  139.8284  162.9307 N.am    1  UNL1       -0.2764
      5 C         143.9968  139.8874  163.7849 C.2     1  UNL1        0.2301
      6 O         145.2009  140.6474  163.3134 O.2     1  UNL1       -0.2745
      7 C         142.7378  140.5293  161.6049 C.3     1  UNL1        0.1107
      8 C         141.5063  140.4703  160.7506 C.3     1  UNL1        0.0939
      9 C         139.0706  139.6513  160.3679 C.3     1  UNL1        0.0769
     10 C         138.0344  140.7310  160.4702 C.3     1  UNL1        0.0437
     11 C         138.0996  143.5903  163.9444 C.ar    1  UNL1        0.0684
     12 C         138.6389  144.0173  162.6114 C.ar    1  UNL1        0.0100
     13 C         138.6171  143.0642  161.4533 C.ar    1  UNL1       -0.0035
     14 C         138.0561  141.6841  161.6282 C.ar    1  UNL1       -0.0207
     15 C         137.5169  141.2571  162.9612 C.ar    1  UNL1       -0.0035
     16 C         137.5386  142.2102  164.1193 C.ar    1  UNL1        0.0100
     17 N         138.1431  145.4965  166.2605 N.1     1  UNL1       -0.1908
     18 C         138.1214  144.5434  165.1025 C.1     1  UNL1        0.1004
     19 C         144.0242  139.1863  165.1108 C.3     1  UNL1        0.1116
     20 C         143.3261  139.7904  166.2931 C.ar    1  UNL1       -0.0130
     21 C         142.9526  141.2431  166.2819 C.ar    1  UNL1       -0.0022
     22 C         142.2545  141.8471  167.4642 C.ar    1  UNL1        0.0190
     23 C         141.9298  140.9985  168.6577 C.ar    1  UNL1        0.0862
     24 C         142.3033  139.5457  168.6689 C.ar    1  UNL1        0.0190
     25 C         143.0014  138.9417  167.4866 C.ar    1  UNL1       -0.0022
     26 N         141.2317  141.6025  169.8399 N.ar    1  UNL1       -0.1886
     27 C         140.1497  142.6402  169.7895 C.ar    1  UNL1        0.2258
     28 N         139.7423  142.9539  171.1986 N.ar    1  UNL1       -0.1045
     29 N         140.5725  142.1102  172.1199 N.ar    1  UNL1       -0.0222
     30 N         141.4930  141.2750  171.2802 N.ar    1  UNL1       -0.0385
@<TRIPOS>BOND
     1    17    18    3
     2    18    11    1
     3    11    12   ar
     4    12    13   ar
     5    13    14   ar
     6    14    10    1
     7    10     9    1
     8     9     1    1
     9     1     2    1
    10     2     3    1
    11     3     4    1
    12     4     5   am
    13     5     6    2
    14     5    19    1
    15    19    20    1
    16    20    21   ar
    17    21    22   ar
    18    22    23   ar
    19    23    26    1
    20    26    27   ar
    21    27    28   ar
    22    28    29   ar
    23    29    30   ar
    24    23    24   ar
    25    24    25   ar
    26     4     7    1
    27     7     8    1
    28    14    15   ar
    29    15    16   ar
    30    16    11   ar
    31     8     1    1
    32    25    20   ar
    33    30    26   ar
@<TRIPOS>MOLECULE
*****
 30 33 0 0 0
SMALL
GASTEIGER

@<TRIPOS>ATOM
      1 N         140.1682  139.6292  161.1706 N.3     1  UNL1       -0.2695
      2 C         140.3141  138.9647  162.5075 C.3     1  UNL1        0.0939
      3 C         141.5889  139.1137  163.2839 C.3     1  UNL1        0.1107
      4 N         142.7177  139.9272  162.7234 N.am    1  UNL1       -0.2764
      5 C         143.9925  140.0761  163.4998 C.2     1  UNL1        0.2301
      6 O         145.1213  140.8895  162.9394 O.2     1  UNL1       -0.2745
      7 C         142.5718  140.5916  161.3866 C.3     1  UNL1        0.1107
      8 C         141.2970  140.4426  160.6102 C.3     1  UNL1        0.0939
      9 C         138.8935  139.4802  160.3942 C.3     1  UNL1        0.0769
     10 C         137.6962  140.3101  160.7518 C.3     1  UNL1        0.0437
     11 C         137.9921  143.4005  164.0093 C.ar    1  UNL1        0.0684
     12 C         137.6239  141.9865  164.3482 C.ar    1  UNL1        0.0100
     13 C         137.5253  140.9563  163.2623 C.ar    1  UNL1       -0.0035
     14 C         137.7948  141.3402  161.8376 C.ar    1  UNL1       -0.0207
     15 C         138.1630  142.7543  161.4987 C.ar    1  UNL1       -0.0035
     16 C         138.2616  143.7844  162.5846 C.ar    1  UNL1        0.0100
     17 N         138.1893  145.4608  166.1810 N.1     1  UNL1       -0.1908
     18 C         138.0907  144.4306  165.0952 C.1     1  UNL1        0.1004
     19 C         144.1384  139.4117  164.8368 C.3     1  UNL1        0.1116
     20 C         143.4268  139.9699  166.0334 C.ar    1  UNL1       -0.0130
     21 C         142.9256  139.0483  167.1054 C.ar    1  UNL1       -0.0022
     22 C         142.2139  139.6065  168.3021 C.ar    1  UNL1        0.0190
     23 C         142.0035  141.0864  168.4266 C.ar    1  UNL1        0.0862
     24 C         142.5047  142.0082  167.3546 C.ar    1  UNL1        0.0190
     25 C         143.2163  141.4499  166.1579 C.ar    1  UNL1       -0.0022
     26 N         141.2919  141.6447  169.6233 N.ar    1  UNL1       -0.1886
     27 C         141.4277  141.1589  171.0359 C.ar    1  UNL1        0.2258
     28 N         140.5393  142.0008  171.9031 N.ar    1  UNL1       -0.1045
     29 N         139.8543  143.0068  171.0264 N.ar    1  UNL1       -0.0222
     30 N         140.3194  142.7867  169.6174 N.ar    1  UNL1       -0.0385
@<TRIPOS>BOND
     1    17    18    3
     2    18    11    1
     3    11    12   ar
     4    12    13   ar
     5    13    14   ar
     6    14    10    1
     7    10     9    1
     8     9     1    1
     9     1     2    1
    10     2     3    1
    11     3     4    1
    12     4     5   am
    13     5     6    2
    14     5    19    1
    15    19    20    1
    16    20    21   ar
    17    21    22   ar
    18    22    23   ar
    19    23    26    1
    20    26    27   ar
    21    27    28   ar
    22    28    29   ar
    23    29    30   ar
    24    23    24   ar
    25    24    25   ar
    26     4     7    1
    27     7     8    1
    28    14    15   ar
    29    15    16   ar
    30    16    11   ar
    31     8     1    1
    32    25    20   ar
    33    30    26   ar
@<TRIPOS>MOLECULE
*****
 30 33 0 0 0
SMALL
GASTEIGER

@<TRIPOS>ATOM
      1 N         139.6395  142.1333  160.7713 N.3     1  UNL1       -0.2695
      2 C         138.7265  141.9043  161.9392 C.3     1  UNL1        0.0939
      3 C         138.7986  140.6173  162.7064 C.3     1  UNL1        0.1107
      4 N         139.7836  139.5594  162.3056 N.am    1  UNL1       -0.2764
      5 C         139.8557  138.2724  163.0727 C.2     1  UNL1        0.2301
      6 O         140.8406  137.2145  162.6719 O.2     1  UNL1       -0.2745
      7 C         140.6965  139.7884  161.1376 C.3     1  UNL1        0.1107
      8 C         140.6245  141.0754  160.3705 C.3     1  UNL1        0.0939
      9 C         139.5675  143.4203  160.0041 C.3     1  UNL1        0.0769
     10 C         140.6376  144.4571  160.1764 C.3     1  UNL1        0.0437
     11 C         143.3872  144.2828  163.7345 C.ar    1  UNL1        0.0684
     12 C         142.0649  144.9827  163.8420 C.ar    1  UNL1        0.0100
     13 C         141.1483  145.0408  162.6560 C.ar    1  UNL1       -0.0035
     14 C         141.5541  144.3990  161.3625 C.ar    1  UNL1       -0.0207
     15 C         142.8764  143.6991  161.2549 C.ar    1  UNL1       -0.0035
     16 C         143.7930  143.6410  162.4409 C.ar    1  UNL1        0.0100
     17 N         145.2202  144.1666  166.1065 N.1     1  UNL1       -0.1908
     18 C         144.3037  144.2247  164.9205 C.1     1  UNL1        0.1004
     19 C         138.9427  138.0433  164.2407 C.3     1  UNL1        0.1116
     20 C         139.2195  138.7166  165.5522 C.ar    1  UNL1       -0.0130
     21 C         138.1301  138.8417  166.5757 C.ar    1  UNL1       -0.0022
     22 C         138.4068  139.5149  167.8872 C.ar    1  UNL1        0.0190
     23 C         139.7730  140.0630  168.1754 C.ar    1  UNL1        0.0862
     24 C         140.8625  139.9379  167.1519 C.ar    1  UNL1        0.0190
     25 C         140.5858  139.2647  165.8403 C.ar    1  UNL1       -0.0022
     26 N         140.0498  140.7362  169.4869 N.ar    1  UNL1       -0.1886
     27 C         140.6855  140.1003  170.6875 C.ar    1  UNL1        0.2258
     28 N         140.7681  141.1346  171.7708 N.ar    1  UNL1       -0.1045
     29 N         140.1834  142.4098  171.2397 N.ar    1  UNL1       -0.0222
     30 N         139.7395  142.1635  169.8281 N.ar    1  UNL1       -0.0385
@<TRIPOS>BOND
     1    17    18    3
     2    18    11    1
     3    11    12   ar
     4    12    13   ar
     5    13    14   ar
     6    14    10    1
     7    10     9    1
     8     9     1    1
     9     1     2    1
    10     2     3    1
    11     3     4    1
    12     4     5   am
    13     5     6    2
    14     5    19    1
    15    19    20    1
    16    20    21   ar
    17    21    22   ar
    18    22    23   ar
    19    23    26    1
    20    26    27   ar
    21    27    28   ar
    22    28    29   ar
    23    29    30   ar
    24    23    24   ar
    25    24    25   ar
    26     4     7    1
    27     7     8    1
    28    14    15   ar
    29    15    16   ar
    30    16    11   ar
    31     8     1    1
    32    25    20   ar
    33    30    26   ar
@<TRIPOS>MOLECULE
*****
 30 33 0 0 0
SMALL
GASTEIGER

@<TRIPOS>ATOM
      1 N         141.6159  138.6325  161.4905 N.3     1  UNL1       -0.2695
      2 C         141.4692  138.3972  162.9647 C.3     1  UNL1        0.0939
      3 C         140.2933  138.9666  163.7017 C.3     1  UNL1        0.1107
      4 N         139.2641  139.7712  162.9644 N.am    1  UNL1       -0.2764
      5 C         138.0882  140.3406  163.7014 C.2     1  UNL1        0.2301
      6 O         137.0591  141.1451  162.9642 O.2     1  UNL1       -0.2745
      7 C         139.4109  140.0064  161.4903 C.3     1  UNL1        0.1107
      8 C         140.5868  139.4370  160.7533 C.3     1  UNL1        0.0939
      9 C         142.7918  138.0631  160.7536 C.3     1  UNL1        0.0769
     10 C         144.1513  138.6733  160.9248 C.3     1  UNL1        0.0437
     11 C         144.7795  141.9604  163.9332 C.ar    1  UNL1        0.0684
     12 C         144.4301  142.2990  162.5143 C.ar    1  UNL1        0.0100
     13 C         144.2207  141.2033  161.5115 C.ar    1  UNL1       -0.0035
     14 C         144.3607  139.7690  161.9276 C.ar    1  UNL1       -0.0207
     15 C         144.7101  139.4304  163.3464 C.ar    1  UNL1       -0.0035
     16 C         144.9195  140.5261  164.3492 C.ar    1  UNL1        0.0100
     17 N         145.1983  144.1518  165.9388 N.1     1  UNL1       -0.1908
     18 C         144.9889  143.0561  164.9360 C.1     1  UNL1        0.1004
     19 C         137.9415  140.1053  165.1756 C.3     1  UNL1        0.1116
     20 C         138.9373  140.6924  166.1315 C.ar    1  UNL1       -0.0130
     21 C         139.5056  142.0572  165.8781 C.ar    1  UNL1       -0.0022
     22 C         140.5014  142.6442  166.8341 C.ar    1  UNL1        0.0190
     23 C         140.9289  141.8665  168.0433 C.ar    1  UNL1        0.0862
     24 C         140.3605  140.5016  168.2967 C.ar    1  UNL1        0.0190
     25 C         139.3647  139.9145  167.3408 C.ar    1  UNL1       -0.0022
     26 N         141.9247  142.4535  168.9992 N.ar    1  UNL1       -0.1886
     27 C         143.4065  142.2213  168.9818 C.ar    1  UNL1        0.2258
     28 N         144.0111  143.0001  170.1122 N.ar    1  UNL1       -0.1045
     29 N         142.9030  143.7138  170.8283 N.ar    1  UNL1       -0.0222
     30 N         141.6135  143.3759  170.1404 N.ar    1  UNL1       -0.0385
@<TRIPOS>BOND
     1    17    18    3
     2    18    11    1
     3    11    12   ar
     4    12    13   ar
     5    13    14   ar
     6    14    10    1
     7    10     9    1
     8     9     1    1
     9     1     2    1
    10     2     3    1
    11     3     4    1
    12     4     5   am
    13     5     6    2
    14     5    19    1
    15    19    20    1
    16    20    21   ar
    17    21    22   ar
    18    22    23   ar
    19    23    26    1
    20    26    27   ar
    21    27    28   ar
    22    28    29   ar
    23    29    30   ar
    24    23    24   ar
    25    24    25   ar
    26     4     7    1
    27     7     8    1
    28    14    15   ar
    29    15    16   ar
    30    16    11   ar
    31     8     1    1
    32    25    20   ar
    33    30    26   ar
@<TRIPOS>MOLECULE
*****
 30 33 0 0 0
SMALL
GASTEIGER

@<TRIPOS>ATOM
      1 N         142.4610  141.4803  160.8189 N.3     1  UNL1       -0.2695
      2 C         143.0607  141.4741  162.1938 C.3     1  UNL1        0.0939
      3 C         142.7751  140.3387  163.1316 C.3     1  UNL1        0.1107
      4 N         141.8897  139.2095  162.6943 N.am    1  UNL1       -0.2764
      5 C         141.6040  138.0741  163.6320 C.2     1  UNL1        0.2301
      6 O         140.7187  136.9450  163.1949 O.2     1  UNL1       -0.2745
      7 C         141.2900  139.2157  161.3195 C.3     1  UNL1        0.1107
      8 C         141.5756  140.3511  160.3818 C.3     1  UNL1        0.0939
      9 C         142.7466  142.6156  159.8812 C.3     1  UNL1        0.0769
     10 C         141.9931  143.9058  160.0140 C.3     1  UNL1        0.0437
     11 C         139.6735  144.7804  163.7696 C.ar    1  UNL1        0.0684
     12 C         141.1436  145.0724  163.7109 C.ar    1  UNL1        0.0100
     13 C         141.9168  144.7809  162.4590 C.ar    1  UNL1       -0.0035
     14 C         141.2199  144.1973  161.2659 C.ar    1  UNL1       -0.0207
     15 C         139.7498  143.9053  161.3246 C.ar    1  UNL1       -0.0035
     16 C         138.9766  144.1968  162.5764 C.ar    1  UNL1        0.0100
     17 N         138.1271  145.3635  166.2734 N.1     1  UNL1       -0.1908
     18 C         138.9003  145.0719  165.0215 C.1     1  UNL1        0.1004
     19 C         142.2038  138.0679  165.0070 C.3     1  UNL1        0.1116
     20 C         141.7464  139.0659  166.0292 C.ar    1  UNL1       -0.0130
     21 C         142.7516  139.7725  166.8896 C.ar    1  UNL1       -0.0022
     22 C         142.2942  140.7704  167.9118 C.ar    1  UNL1        0.0190
     23 C         140.8317  141.0618  168.0736 C.ar    1  UNL1        0.0862
     24 C         139.8265  140.3551  167.2132 C.ar    1  UNL1        0.0190
     25 C         140.2838  139.3572  166.1910 C.ar    1  UNL1       -0.0022
     26 N         140.3744  142.0597  169.0958 N.ar    1  UNL1       -0.1886
     27 C         139.5532  141.7601  170.3148 C.ar    1  UNL1        0.2258
     28 N         139.3292  143.0477  171.0509 N.ar    1  UNL1       -0.1045
     29 N         140.0120  144.1432  170.2869 N.ar    1  UNL1       -0.0222
     30 N         140.6579  143.5326  169.0786 N.ar    1  UNL1       -0.0385
@<TRIPOS>BOND
     1    17    18    3
     2    18    11    1
     3    11    12   ar
     4    12    13   ar
     5    13    14   ar
     6    14    10    1
     7    10     9    1
     8     9     1    1
     9     1     2    1
    10     2     3    1
    11     3     4    1
    12     4     5   am
    13     5     6    2
    14     5    19    1
    15    19    20    1
    16    20    21   ar
    17    21    22   ar
    18    22    23   ar
    19    23    26    1
    20    26    27   ar
    21    27    28   ar
    22    28    29   ar
    23    29    30   ar
    24    23    24   ar
    25    24    25   ar
    26     4     7    1
    27     7     8    1
    28    14    15   ar
    29    15    16   ar
    30    16    11   ar
    31     8     1    1
    32    25    20   ar
    33    30    26   ar
@<TRIPOS>MOLECULE
*****
 30 33 0 0 0
SMALL
GASTEIGER

@<TRIPOS>ATOM
      1 N         141.3275  140.6845  160.0500 N.3     1  UNL1       -0.2695
      2 C         141.3186  139.6613  161.1469 C.3     1  UNL1        0.0939
      3 C         140.2309  139.6783  162.1796 C.3     1  UNL1        0.1107
      4 N         139.1521  140.7187  162.1155 N.am    1  UNL1       -0.2764
      5 C         138.0644  140.7357  163.1483 C.2     1  UNL1        0.2301
      6 O         136.9856  141.7760  163.0842 O.2     1  UNL1       -0.2745
      7 C         139.1610  141.7418  161.0187 C.3     1  UNL1        0.1107
      8 C         140.2488  141.7247  159.9860 C.3     1  UNL1        0.0939
      9 C         142.4152  140.6674  159.0173 C.3     1  UNL1        0.0769
     10 C         143.7725  141.2135  159.3484 C.3     1  UNL1        0.0437
     11 C         144.5831  142.8970  163.4421 C.ar    1  UNL1        0.0684
     12 C         144.0205  143.7784  162.3666 C.ar    1  UNL1        0.0100
     13 C         143.7503  143.2172  161.0020 C.ar    1  UNL1       -0.0035
     14 C         144.0427  141.7747  160.7130 C.ar    1  UNL1       -0.0207
     15 C         144.6052  140.8933  161.7885 C.ar    1  UNL1       -0.0035
     16 C         144.8754  141.4545  163.1530 C.ar    1  UNL1        0.0100
     17 N         145.1235  144.0194  166.1713 N.1     1  UNL1       -0.1908
     18 C         144.8533  143.4582  164.8067 C.1     1  UNL1        0.1004
     19 C         138.0554  139.7125  164.2451 C.3     1  UNL1        0.1116
     20 C         138.6096  140.0562  165.5959 C.ar    1  UNL1       -0.0130
     21 C         139.4834  141.2639  165.7630 C.ar    1  UNL1       -0.0022
     22 C         140.0376  141.6076  167.1138 C.ar    1  UNL1        0.0190
     23 C         139.7180  140.7436  168.2976 C.ar    1  UNL1        0.0862
     24 C         138.8441  139.5358  168.1306 C.ar    1  UNL1        0.0190
     25 C         138.2900  139.1921  166.7797 C.ar    1  UNL1       -0.0022
     26 N         140.2721  141.0873  169.6484 N.ar    1  UNL1       -0.1886
     27 C         141.4802  140.4704  170.2889 C.ar    1  UNL1        0.2258
     28 N         141.6702  141.1101  171.6323 N.ar    1  UNL1       -0.1045
     29 N         140.5797  142.1223  171.8221 N.ar    1  UNL1       -0.0222
     30 N         139.7156  142.1082  170.5960 N.ar    1  UNL1       -0.0385
@<TRIPOS>BOND
     1    17    18    3
     2    18    11    1
     3    11    12   ar
     4    12    13   ar
     5    13    14   ar
     6    14    10    1
     7    10     9    1
     8     9     1    1
     9     1     2    1
    10     2     3    1
    11     3     4    1
    12     4     5   am
    13     5     6    2
    14     5    19    1
    15    19    20    1
    16    20    21   ar
    17    21    22   ar
    18    22    23   ar
    19    23    26    1
    20    26    27   ar
    21    27    28   ar
    22    28    29   ar
    23    29    30   ar
    24    23    24   ar
    25    24    25   ar
    26     4     7    1
    27     7     8    1
    28    14    15   ar
    29    15    16   ar
    30    16    11   ar
    31     8     1    1
    32    25    20   ar
    33    30    26   ar
@<TRIPOS>MOLECULE
*****
 30 33 0 0 0
SMALL
GASTEIGER

@<TRIPOS>ATOM
      1 N         141.5839  140.0454  160.2863 N.3     1  UNL1       -0.2695
      2 C         140.8755  141.0724  161.1191 C.3     1  UNL1        0.0939
      3 C         139.9746  140.6394  162.2376 C.3     1  UNL1        0.1107
      4 N         139.7822  139.1794  162.5232 N.am    1  UNL1       -0.2764
      5 C         138.8813  138.7464  163.6417 C.2     1  UNL1        0.2301
      6 O         138.6889  137.2865  163.9273 O.2     1  UNL1       -0.2745
      7 C         140.4906  138.1525  161.6904 C.3     1  UNL1        0.1107
      8 C         141.3915  138.5855  160.5720 C.3     1  UNL1        0.0939
      9 C         142.4848  140.4784  159.1679 C.3     1  UNL1        0.0769
     10 C         143.8338  141.0588  159.4733 C.3     1  UNL1        0.0437
     11 C         144.6498  142.8473  163.5212 C.ar    1  UNL1        0.0684
     12 C         144.8070  141.3709  163.3080 C.ar    1  UNL1        0.0100
     13 C         144.5350  140.7747  161.9587 C.ar    1  UNL1       -0.0035
     14 C         144.1058  141.6550  160.8226 C.ar    1  UNL1       -0.0207
     15 C         143.9485  143.1313  161.0357 C.ar    1  UNL1       -0.0035
     16 C         144.2205  143.7275  162.3850 C.ar    1  UNL1        0.0100
     17 N         145.1937  144.0396  166.2198 N.1     1  UNL1       -0.1908
     18 C         144.9217  143.4434  164.8705 C.1     1  UNL1        0.1004
     19 C         138.1729  139.7733  164.4745 C.3     1  UNL1        0.1116
     20 C         138.7848  140.2496  165.7585 C.ar    1  UNL1       -0.0130
     21 C         138.6781  139.4100  166.9969 C.ar    1  UNL1       -0.0022
     22 C         139.2900  139.8863  168.2809 C.ar    1  UNL1        0.0190
     23 C         140.0085  141.2022  168.3266 C.ar    1  UNL1        0.0862
     24 C         140.1152  142.0419  167.0882 C.ar    1  UNL1        0.0190
     25 C         139.5033  141.5656  165.8041 C.ar    1  UNL1       -0.0022
     26 N         140.6204  141.6784  169.6106 N.ar    1  UNL1       -0.1886
     27 C         141.8571  142.5174  169.7401 C.ar    1  UNL1        0.2258
     28 N         142.1041  142.7568  171.2002 N.ar    1  UNL1       -0.1045
     29 N         141.0200  142.0659  171.9731 N.ar    1  UNL1       -0.0222
     30 N         140.1030  141.3994  170.9907 N.ar    1  UNL1       -0.0385
@<TRIPOS>BOND
     1    17    18    3
     2    18    11    1
     3    11    12   ar
     4    12    13   ar
     5    13    14   ar
     6    14    10    1
     7    10     9    1
     8     9     1    1
     9     1     2    1
    10     2     3    1
    11     3     4    1
    12     4     5   am
    13     5     6    2
    14     5    19    1
    15    19    20    1
    16    20    21   ar
    17    21    22   ar
    18    22    23   ar
    19    23    26    1
    20    26    27   ar
    21    27    28   ar
    22    28    29   ar
    23    29    30   ar
    24    23    24   ar
    25    24    25   ar
    26     4     7    1
    27     7     8    1
    28    14    15   ar
    29    15    16   ar
    30    16    11   ar
    31     8     1    1
    32    25    20   ar
    33    30    26   ar
@<TRIPOS>MOLECULE
*****
 30 33 0 0 0
SMALL
GASTEIGER

@<TRIPOS>ATOM
      1 N         141.9551  138.2610  159.1183 N.3     1  UNL1       -0.2695
      2 C         142.7242  137.8817  160.3491 C.3     1  UNL1        0.0939
      3 C         142.0339  137.8346  161.6800 C.3     1  UNL1        0.1107
      4 N         140.5745  138.1666  161.7801 N.am    1  UNL1       -0.2764
      5 C         139.8842  138.1195  163.1109 C.2     1  UNL1        0.2301
      6 O         138.4248  138.4515  163.2111 O.2     1  UNL1       -0.2745
      7 C         139.8055  138.5459  160.5493 C.3     1  UNL1        0.1107
      8 C         140.4958  138.5930  159.2184 C.3     1  UNL1        0.0939
      9 C         142.6454  138.3081  157.7874 C.3     1  UNL1        0.0769
     10 C         142.0263  137.6374  156.5972 C.3     1  UNL1        0.0437
     11 C         142.3488  133.1756  156.1083 C.ar    1  UNL1        0.0684
     12 C         143.2180  133.8859  157.1032 C.ar    1  UNL1        0.0100
     13 C         143.1105  135.3731  157.2662 C.ar    1  UNL1       -0.0035
     14 C         142.1338  136.1501  156.4342 C.ar    1  UNL1       -0.0207
     15 C         141.2646  135.4399  155.4393 C.ar    1  UNL1       -0.0035
     16 C         141.3721  133.9526  155.2763 C.ar    1  UNL1        0.0100
     17 N         142.5638  130.2011  155.7824 N.1     1  UNL1       -0.1908
     18 C         142.4563  131.6884  155.9453 C.1     1  UNL1        0.1004
     19 C         140.6533  137.7403  164.3417 C.3     1  UNL1        0.1116
     20 C         140.6211  138.6289  165.5497 C.ar    1  UNL1       -0.0130
     21 C         139.3070  139.0223  166.1566 C.ar    1  UNL1       -0.0022
     22 C         139.2748  139.9110  167.3646 C.ar    1  UNL1        0.0190
     23 C         140.5567  140.4062  167.9657 C.ar    1  UNL1        0.0862
     24 C         141.8709  140.0128  167.3588 C.ar    1  UNL1        0.0190
     25 C         141.9031  139.1242  166.1508 C.ar    1  UNL1       -0.0022
     26 N         140.5245  141.2949  169.1737 N.ar    1  UNL1       -0.1886
     27 C         140.4592  142.7935  169.1644 C.ar    1  UNL1        0.2258
     28 N         140.4463  143.2658  170.5880 N.ar    1  UNL1       -0.1045
     29 N         140.5035  142.0591  171.4772 N.ar    1  UNL1       -0.0222
     30 N         140.5518  140.8411  170.6031 N.ar    1  UNL1       -0.0385
@<TRIPOS>BOND
     1    17    18    3
     2    18    11    1
     3    11    12   ar
     4    12    13   ar
     5    13    14   ar
     6    14    10    1
     7    10     9    1
     8     9     1    1
     9     1     2    1
    10     2     3    1
    11     3     4    1
    12     4     5   am
    13     5     6    2
    14     5    19    1
    15    19    20    1
    16    20    21   ar
    17    21    22   ar
    18    22    23   ar
    19    23    26    1
    20    26    27   ar
    21    27    28   ar
    22    28    29   ar
    23    29    30   ar
    24    23    24   ar
    25    24    25   ar
    26     4     7    1
    27     7     8    1
    28    14    15   ar
    29    15    16   ar
    30    16    11   ar
    31     8     1    1
    32    25    20   ar
    33    30    26   ar
@<TRIPOS>MOLECULE
*****
 30 33 0 0 0
SMALL
GASTEIGER

@<TRIPOS>ATOM
      1 N         142.7171  138.7217  159.1309 N.3     1  UNL1       -0.2695
      2 C         141.7917  138.0491  160.1011 C.3     1  UNL1        0.0939
      3 C         142.0148  138.1983  161.5769 C.3     1  UNL1        0.1107
      4 N         143.1634  139.0201  162.0824 N.am    1  UNL1       -0.2764
      5 C         143.3865  139.1693  163.5582 C.2     1  UNL1        0.2301
      6 O         144.5349  139.9910  164.0638 O.2     1  UNL1       -0.2745
      7 C         144.0887  139.6927  161.1123 C.3     1  UNL1        0.1107
      8 C         143.8656  139.5435  159.6365 C.3     1  UNL1        0.0939
      9 C         142.4940  138.5725  157.6551 C.3     1  UNL1        0.0769
     10 C         141.4684  137.6037  157.1458 C.3     1  UNL1        0.0437
     11 C         142.7698  133.7012  155.3218 C.ar    1  UNL1        0.0684
     12 C         141.5165  134.3719  154.8430 C.ar    1  UNL1        0.0100
     13 C         141.0827  135.6728  155.4509 C.ar    1  UNL1       -0.0035
     14 C         141.9022  136.3029  156.5378 C.ar    1  UNL1       -0.0207
     15 C         143.1555  135.6322  157.0166 C.ar    1  UNL1       -0.0035
     16 C         143.5893  134.3314  156.4087 C.ar    1  UNL1        0.0100
     17 N         143.6373  131.0995  154.1059 N.1     1  UNL1       -0.1908
     18 C         143.2036  132.4004  154.7138 C.1     1  UNL1        0.1004
     19 C         142.4610  138.4967  164.5284 C.3     1  UNL1        0.1116
     20 C         142.0783  139.1890  165.8029 C.ar    1  UNL1       -0.0130
     21 C         140.8782  140.0881  165.8369 C.ar    1  UNL1       -0.0022
     22 C         140.4955  140.7804  167.1114 C.ar    1  UNL1        0.0190
     23 C         141.3130  140.5736  168.3519 C.ar    1  UNL1        0.0862
     24 C         142.5132  139.6744  168.3179 C.ar    1  UNL1        0.0190
     25 C         142.8959  138.9821  167.0435 C.ar    1  UNL1       -0.0022
     26 N         140.9303  141.2659  169.6264 N.ar    1  UNL1       -0.1886
     27 C         139.9786  142.4183  169.7523 C.ar    1  UNL1        0.2258
     28 N         139.8922  142.7920  171.2024 N.ar    1  UNL1       -0.1045
     29 N         140.7907  141.8704  171.9728 N.ar    1  UNL1       -0.0222
     30 N         141.4323  140.9272  170.9987 N.ar    1  UNL1       -0.0385
@<TRIPOS>BOND
     1    17    18    3
     2    18    11    1
     3    11    12   ar
     4    12    13   ar
     5    13    14   ar
     6    14    10    1
     7    10     9    1
     8     9     1    1
     9     1     2    1
    10     2     3    1
    11     3     4    1
    12     4     5   am
    13     5     6    2
    14     5    19    1
    15    19    20    1
    16    20    21   ar
    17    21    22   ar
    18    22    23   ar
    19    23    26    1
    20    26    27   ar
    21    27    28   ar
    22    28    29   ar
    23    29    30   ar
    24    23    24   ar
    25    24    25   ar
    26     4     7    1
    27     7     8    1
    28    14    15   ar
    29    15    16   ar
    30    16    11   ar
    31     8     1    1
    32    25    20   ar
    33    30    26   ar
