@<TRIPOS>MOLECULE
*****
 36 39 0 0 0
SMALL
GASTEIGER

@<TRIPOS>ATOM
      1 O         143.4749  138.8127  163.7797 O.3     1  UNL1       -0.4741
      2 C         143.1255  140.1114  163.1156 C.ar    1  UNL1        0.1513
      3 C         141.9629  140.1815  162.1703 C.ar    1  UNL1        0.0688
      4 C         141.6135  141.4803  161.5061 C.ar    1  UNL1        0.1620
      5 F         140.4510  141.5504  160.5609 F       1  UNL1       -0.2026
      6 C         142.4267  142.7090  161.7873 C.ar    1  UNL1        0.1535
      7 C         143.5892  142.6390  162.7326 C.ar    1  UNL1        0.0369
      8 C         143.9386  141.3402  163.3967 C.ar    1  UNL1        0.0930
      9 CL        145.1012  141.2702  164.3420 Cl      1  UNL1       -0.0790
     10 S         142.0772  144.0078  161.1232 S.O2    1  UNL1        0.0769
     11 O         140.9700  144.2162  162.1133 O.2     1  UNL1       -0.1498
     12 O         143.1845  143.7993  160.1330 O.2     1  UNL1       -0.1498
     13 N         141.7277  145.3066  160.4590 N.pl3   1  UNL1       -0.1984
     14 H         141.7196  146.1405  160.9823 H       1  UNL1        0.1753
     15 C         141.3906  145.3348  158.9977 C.ar    1  UNL1        0.1542
     16 C         140.2183  144.6593  158.3500 C.ar    1  UNL1        0.0725
     17 S         140.2698  144.9505  156.8795 S.2     1  UNL1       -0.0625
     18 C         141.4740  145.8060  156.6182 C.ar    1  UNL1        0.1360
     19 N         142.1667  146.0435  157.9273 N.ar    1  UNL1       -0.2203
     20 C         142.8644  138.4591  165.1034 C.3     1  UNL1        0.2110
     21 N         141.0956  136.7880  163.3488 N.3     1  UNL1       -0.3218
     22 C         140.4910  137.6692  164.4014 C.3     1  UNL1        0.0588
     23 C         139.0020  137.7148  164.5767 C.3     1  UNL1        0.0206
     24 C         138.3974  138.5959  165.6294 C.3     1  UNL1        0.0271
     25 C         139.2818  139.4314  166.5067 C.2     1  UNL1       -0.0302
     26 C         140.7708  139.3858  166.3314 C.2     1  UNL1       -0.0218
     27 C         141.3754  138.5047  165.2787 C.3     1  UNL1        0.0798
     28 H         140.3541  136.2959  162.8503 H       1  UNL1        0.1188
     29 H         141.7174  136.1099  163.7891 H       1  UNL1        0.1188
     30 C         141.6552  140.2214  167.2087 C.ar    1  UNL1       -0.0040
     31 C         142.1761  141.5376  166.7125 C.ar    1  UNL1        0.0020
     32 C         143.0606  142.3731  167.5898 C.ar    1  UNL1        0.0296
     33 C         143.4241  141.8924  168.9634 C.ar    1  UNL1        0.1401
     34 F         144.3085  142.7279  169.8407 F       1  UNL1       -0.2042
     35 C         142.9032  140.5761  169.4596 C.ar    1  UNL1        0.0296
     36 C         142.0188  139.7407  168.5823 C.ar    1  UNL1        0.0020
@<TRIPOS>BOND
     1    22    21    1
     2    22    23    1
     3    23    24    1
     4    24    25    1
     5    25    26    2
     6    26    30    1
     7    30    31   ar
     8    31    32   ar
     9    32    33   ar
    10    33    34    1
    11    33    35   ar
    12    35    36   ar
    13    26    27    1
    14    27    20    1
    15    20     1    1
    16     1     2    1
    17     2     3   ar
    18     3     4   ar
    19     4     5    1
    20     4     6   ar
    21     6    10    1
    22    10    11    2
    23    10    12    2
    24    10    13    1
    25    13    15    1
    26    15    16   ar
    27    16    17   ar
    28    17    18   ar
    29    18    19   ar
    30     6     7   ar
    31     7     8   ar
    32     8     9    1
    33    27    22    1
    34     8     2   ar
    35    36    30   ar
    36    19    15   ar
    37    21    28    1
    38    21    29    1
    39    13    14    1
@<TRIPOS>MOLECULE
*****
 36 39 0 0 0
SMALL
GASTEIGER

@<TRIPOS>ATOM
      1 O         137.7247  140.2234  164.8528 O.3     1  UNL1       -0.4741
      2 C         138.3979  141.2836  164.0326 C.ar    1  UNL1        0.1513
      3 C         139.0492  142.4538  164.7081 C.ar    1  UNL1        0.0688
      4 C         139.7224  143.5140  163.8878 C.ar    1  UNL1        0.1620
      5 F         140.3737  144.6843  164.5633 F       1  UNL1       -0.2026
      6 C         139.7442  143.4040  162.3920 C.ar    1  UNL1        0.1535
      7 C         139.0929  142.2337  161.7165 C.ar    1  UNL1        0.0369
      8 C         138.4197  141.1736  162.5367 C.ar    1  UNL1        0.0930
      9 CL        137.7684  140.0033  161.8612 Cl      1  UNL1       -0.0790
     10 S         140.4174  144.4641  161.5717 S.O2    1  UNL1        0.0769
     11 O         141.6298  143.5911  161.4384 O.2     1  UNL1       -0.1498
     12 O         139.2049  145.3371  161.7051 O.2     1  UNL1       -0.1498
     13 N         141.0906  145.5243  160.7514 N.pl3   1  UNL1       -0.1984
     14 H         141.4864  146.3106  161.1923 H       1  UNL1        0.1753
     15 C         141.1607  145.3865  159.2594 C.ar    1  UNL1        0.1542
     16 C         140.1430  144.7129  158.3874 C.ar    1  UNL1        0.0725
     17 S         140.6142  144.8081  156.9665 S.2     1  UNL1       -0.0625
     18 C         141.9232  145.5407  156.9604 C.ar    1  UNL1        0.1360
     19 N         142.2610  145.8982  158.3775 N.ar    1  UNL1       -0.2203
     20 C         138.4606  139.5717  165.9859 C.3     1  UNL1        0.2110
     21 N         139.2113  137.6603  163.7988 N.3     1  UNL1       -0.3218
     22 C         140.2667  138.2010  164.7173 C.3     1  UNL1        0.0588
     23 C         141.6975  137.7861  164.5422 C.3     1  UNL1        0.0206
     24 C         142.7529  138.3268  165.4607 C.3     1  UNL1        0.0271
     25 C         142.3776  139.2824  166.5543 C.2     1  UNL1       -0.0302
     26 C         140.9469  139.6974  166.7293 C.2     1  UNL1       -0.0218
     27 C         139.8914  139.1567  165.8108 C.3     1  UNL1        0.0798
     28 H         139.6405  137.0304  163.1210 H       1  UNL1        0.1188
     29 H         138.7602  138.4321  163.3075 H       1  UNL1        0.1188
     30 C         140.5715  140.6531  167.8229 C.ar    1  UNL1       -0.0040
     31 C         140.9519  142.1002  167.7175 C.ar    1  UNL1        0.0020
     32 C         140.5766  143.0558  168.8111 C.ar    1  UNL1        0.0296
     33 C         139.8208  142.5644  170.0100 C.ar    1  UNL1        0.1401
     34 F         139.4454  143.5200  171.1035 F       1  UNL1       -0.2042
     35 C         139.4404  141.1172  170.1152 C.ar    1  UNL1        0.0296
     36 C         139.8157  140.1616  169.0217 C.ar    1  UNL1        0.0020
@<TRIPOS>BOND
     1    22    21    1
     2    22    23    1
     3    23    24    1
     4    24    25    1
     5    25    26    2
     6    26    30    1
     7    30    31   ar
     8    31    32   ar
     9    32    33   ar
    10    33    34    1
    11    33    35   ar
    12    35    36   ar
    13    26    27    1
    14    27    20    1
    15    20     1    1
    16     1     2    1
    17     2     3   ar
    18     3     4   ar
    19     4     5    1
    20     4     6   ar
    21     6    10    1
    22    10    11    2
    23    10    12    2
    24    10    13    1
    25    13    15    1
    26    15    16   ar
    27    16    17   ar
    28    17    18   ar
    29    18    19   ar
    30     6     7   ar
    31     7     8   ar
    32     8     9    1
    33    27    22    1
    34     8     2   ar
    35    36    30   ar
    36    19    15   ar
    37    21    28    1
    38    21    29    1
    39    13    14    1
@<TRIPOS>MOLECULE
*****
 36 39 0 0 0
SMALL
GASTEIGER

@<TRIPOS>ATOM
      1 O         143.1009  139.7157  166.8728 O.3     1  UNL1       -0.4741
      2 C         143.0225  140.7138  165.7559 C.ar    1  UNL1        0.1513
      3 C         143.6228  142.0779  165.9255 C.ar    1  UNL1        0.0688
      4 C         143.5443  143.0761  164.8085 C.ar    1  UNL1        0.1620
      5 F         144.1447  144.4402  164.9781 F       1  UNL1       -0.2026
      6 C         142.8655  142.7101  163.5220 C.ar    1  UNL1        0.1535
      7 C         142.2652  141.3459  163.3523 C.ar    1  UNL1        0.0369
      8 C         142.3436  140.3478  164.4693 C.ar    1  UNL1        0.0930
      9 CL        141.7433  138.9837  164.2996 Cl      1  UNL1       -0.0790
     10 S         142.7871  143.7082  162.4050 S.O2    1  UNL1        0.0769
     11 O         143.8599  142.9651  161.6656 O.2     1  UNL1       -0.1498
     12 O         141.7143  144.4513  163.1445 O.2     1  UNL1       -0.1498
     13 N         142.7087  144.7063  161.2880 N.pl3   1  UNL1       -0.1984
     14 H         143.3271  145.4720  161.2678 H       1  UNL1        0.1753
     15 C         141.6879  144.5378  160.2019 C.ar    1  UNL1        0.1542
     16 C         140.7022  143.4132  160.0852 C.ar    1  UNL1        0.0725
     17 S         139.8787  143.6446  158.8530 S.2     1  UNL1       -0.0625
     18 C         140.3555  144.9122  158.2081 C.ar    1  UNL1        0.1360
     19 N         141.4737  145.4643  159.0418 N.ar    1  UNL1       -0.2203
     20 C         142.0860  139.7444  167.9770 C.3     1  UNL1        0.2110
     21 N         143.6664  140.6150  170.3738 N.3     1  UNL1       -0.3218
     22 C         142.5490  141.4737  169.8599 C.3     1  UNL1        0.0588
     23 C         142.2218  142.7677  170.5443 C.3     1  UNL1        0.0206
     24 C         141.1045  143.6264  170.0303 C.3     1  UNL1        0.0271
     25 C         140.3143  143.1912  168.8319 C.2     1  UNL1       -0.0302
     26 C         140.6415  141.8972  168.1475 C.2     1  UNL1       -0.0218
     27 C         141.7589  141.0385  168.6615 C.3     1  UNL1        0.0798
     28 H         144.0910  141.0605  171.1872 H       1  UNL1        0.1188
     29 H         144.3694  140.4991  169.6440 H       1  UNL1        0.1188
     30 C         139.8514  141.4618  166.9491 C.ar    1  UNL1       -0.0040
     31 C         139.6921  142.3871  165.7793 C.ar    1  UNL1        0.0020
     32 C         138.9019  141.9517  164.5808 C.ar    1  UNL1        0.0296
     33 C         138.2711  140.5911  164.5523 C.ar    1  UNL1        0.1401
     34 F         137.4809  140.1558  163.3539 F       1  UNL1       -0.2042
     35 C         138.4304  139.6659  165.7222 C.ar    1  UNL1        0.0296
     36 C         139.2205  140.1013  166.9205 C.ar    1  UNL1        0.0020
@<TRIPOS>BOND
     1    22    21    1
     2    22    23    1
     3    23    24    1
     4    24    25    1
     5    25    26    2
     6    26    30    1
     7    30    31   ar
     8    31    32   ar
     9    32    33   ar
    10    33    34    1
    11    33    35   ar
    12    35    36   ar
    13    26    27    1
    14    27    20    1
    15    20     1    1
    16     1     2    1
    17     2     3   ar
    18     3     4   ar
    19     4     5    1
    20     4     6   ar
    21     6    10    1
    22    10    11    2
    23    10    12    2
    24    10    13    1
    25    13    15    1
    26    15    16   ar
    27    16    17   ar
    28    17    18   ar
    29    18    19   ar
    30     6     7   ar
    31     7     8   ar
    32     8     9    1
    33    27    22    1
    34     8     2   ar
    35    36    30   ar
    36    19    15   ar
    37    21    28    1
    38    21    29    1
    39    13    14    1
@<TRIPOS>MOLECULE
*****
 36 39 0 0 0
SMALL
GASTEIGER

@<TRIPOS>ATOM
      1 O         139.1506  140.4212  166.4519 O.3     1  UNL1       -0.4741
      2 C         139.4862  141.4571  165.4202 C.ar    1  UNL1        0.1513
      3 C         139.2119  142.9059  165.6953 C.ar    1  UNL1        0.0688
      4 C         139.5476  143.9419  164.6636 C.ar    1  UNL1        0.1620
      5 F         139.2733  145.3907  164.9387 F       1  UNL1       -0.2026
      6 C         140.1574  143.5289  163.3569 C.ar    1  UNL1        0.1535
      7 C         140.4317  142.0801  163.0818 C.ar    1  UNL1        0.0369
      8 C         140.0961  141.0442  164.1135 C.ar    1  UNL1        0.0930
      9 CL        140.3703  139.5954  163.8384 Cl      1  UNL1       -0.0790
     10 S         140.4930  144.5648  162.3253 S.O2    1  UNL1        0.0769
     11 O         141.8685  144.6997  162.9082 O.2     1  UNL1       -0.1498
     12 O         139.1175  144.4299  161.7424 O.2     1  UNL1       -0.1498
     13 N         140.8287  145.6007  161.2937 N.pl3   1  UNL1       -0.1984
     14 H         140.8024  146.5563  161.5289 H       1  UNL1        0.1753
     15 C         141.2044  145.1806  159.9036 C.ar    1  UNL1        0.1542
     16 C         140.4543  145.5150  158.6484 C.ar    1  UNL1        0.0725
     17 S         141.1825  144.8934  157.4936 S.2     1  UNL1       -0.0625
     18 C         142.3826  144.1749  158.0352 C.ar    1  UNL1        0.1360
     19 N         142.3963  144.3524  159.5246 N.ar    1  UNL1       -0.2203
     20 C         140.2046  139.9450  167.4070 C.3     1  UNL1        0.2110
     21 N         138.8886  140.6966  169.9961 N.3     1  UNL1       -0.3218
     22 C         140.2144  141.2937  169.6276 C.3     1  UNL1        0.0588
     23 C         140.8822  142.2666  170.5536 C.3     1  UNL1        0.0206
     24 C         142.2080  142.8637  170.1850 C.3     1  UNL1        0.0271
     25 C         142.8659  142.4879  168.8905 C.2     1  UNL1       -0.0302
     26 C         142.1981  141.5150  167.9645 C.2     1  UNL1       -0.0218
     27 C         140.8724  140.9179  168.3331 C.3     1  UNL1        0.0798
     28 H         138.5918  141.0604  170.9016 H       1  UNL1        0.1188
     29 H         138.9759  139.6817  170.0496 H       1  UNL1        0.1188
     30 C         142.8561  141.1392  166.6699 C.ar    1  UNL1       -0.0040
     31 C         143.1506  139.6996  166.3685 C.ar    1  UNL1        0.0020
     32 C         143.8086  139.3238  165.0739 C.ar    1  UNL1        0.0296
     33 C         144.1720  140.3876  164.0808 C.ar    1  UNL1        0.1401
     34 F         144.8299  140.0119  162.7863 F       1  UNL1       -0.2042
     35 C         143.8775  141.8272  164.3823 C.ar    1  UNL1        0.0296
     36 C         143.2195  142.2030  165.6768 C.ar    1  UNL1        0.0020
@<TRIPOS>BOND
     1    22    21    1
     2    22    23    1
     3    23    24    1
     4    24    25    1
     5    25    26    2
     6    26    30    1
     7    30    31   ar
     8    31    32   ar
     9    32    33   ar
    10    33    34    1
    11    33    35   ar
    12    35    36   ar
    13    26    27    1
    14    27    20    1
    15    20     1    1
    16     1     2    1
    17     2     3   ar
    18     3     4   ar
    19     4     5    1
    20     4     6   ar
    21     6    10    1
    22    10    11    2
    23    10    12    2
    24    10    13    1
    25    13    15    1
    26    15    16   ar
    27    16    17   ar
    28    17    18   ar
    29    18    19   ar
    30     6     7   ar
    31     7     8   ar
    32     8     9    1
    33    27    22    1
    34     8     2   ar
    35    36    30   ar
    36    19    15   ar
    37    21    28    1
    38    21    29    1
    39    13    14    1
@<TRIPOS>MOLECULE
*****
 36 39 0 0 0
SMALL
GASTEIGER

@<TRIPOS>ATOM
      1 O         143.0299  141.1176  166.2375 O.3     1  UNL1       -0.4741
      2 C         142.7324  141.9954  165.0582 C.ar    1  UNL1        0.1513
      3 C         141.6284  141.6300  164.1108 C.ar    1  UNL1        0.0688
      4 C         141.3309  142.5079  162.9314 C.ar    1  UNL1        0.1620
      5 F         140.2269  142.1424  161.9840 F       1  UNL1       -0.2026
      6 C         142.1375  143.7510  162.6994 C.ar    1  UNL1        0.1535
      7 C         143.2416  144.1164  163.6468 C.ar    1  UNL1        0.0369
      8 C         143.5390  143.2387  164.8261 C.ar    1  UNL1        0.0930
      9 CL        144.6431  143.6041  165.7735 Cl      1  UNL1       -0.0790
     10 S         141.8400  144.6288  161.5200 S.O2    1  UNL1        0.0769
     11 O         142.9453  143.9690  160.7501 O.2     1  UNL1       -0.1498
     12 O         140.7347  145.2887  162.2899 O.2     1  UNL1       -0.1498
     13 N         141.5426  145.5066  160.3405 N.pl3   1  UNL1       -0.1984
     14 H         141.8287  146.4486  160.3434 H       1  UNL1        0.1753
     15 C         140.8091  144.9492  159.1568 C.ar    1  UNL1        0.1542
     16 C         140.8593  145.4843  157.7564 C.ar    1  UNL1        0.0725
     17 S         139.9779  144.6245  156.8997 S.2     1  UNL1       -0.0625
     18 C         139.3829  143.5580  157.7706 C.ar    1  UNL1        0.1360
     19 N         139.8966  143.7586  159.1656 N.ar    1  UNL1       -0.2203
     20 C         142.1509  139.9394  166.5362 C.3     1  UNL1        0.2110
     21 N         143.1175  140.4122  169.3366 N.3     1  UNL1       -0.3218
     22 C         141.6518  140.2408  169.0680 C.3     1  UNL1        0.0588
     23 C         140.6693  140.3058  170.1996 C.3     1  UNL1        0.0206
     24 C         139.2035  140.1344  169.9310 C.3     1  UNL1        0.0271
     25 C         138.7202  139.8980  168.5309 C.2     1  UNL1       -0.0302
     26 C         139.7027  139.8330  167.3993 C.2     1  UNL1       -0.0218
     27 C         141.1685  140.0044  167.6679 C.3     1  UNL1        0.0798
     28 H         143.2650  140.5626  170.3346 H       1  UNL1        0.1188
     29 H         143.4667  141.2170  168.8162 H       1  UNL1        0.1188
     30 C         139.2194  139.5966  165.9990 C.ar    1  UNL1       -0.0040
     31 C         138.4958  140.6841  165.2617 C.ar    1  UNL1        0.0020
     32 C         138.0126  140.4477  163.8615 C.ar    1  UNL1        0.0296
     33 C         138.2529  139.1238  163.1986 C.ar    1  UNL1        0.1401
     34 F         137.7696  138.8873  161.7984 F       1  UNL1       -0.2042
     35 C         138.9765  138.0362  163.9360 C.ar    1  UNL1        0.0296
     36 C         139.4597  138.2726  165.3362 C.ar    1  UNL1        0.0020
@<TRIPOS>BOND
     1    22    21    1
     2    22    23    1
     3    23    24    1
     4    24    25    1
     5    25    26    2
     6    26    30    1
     7    30    31   ar
     8    31    32   ar
     9    32    33   ar
    10    33    34    1
    11    33    35   ar
    12    35    36   ar
    13    26    27    1
    14    27    20    1
    15    20     1    1
    16     1     2    1
    17     2     3   ar
    18     3     4   ar
    19     4     5    1
    20     4     6   ar
    21     6    10    1
    22    10    11    2
    23    10    12    2
    24    10    13    1
    25    13    15    1
    26    15    16   ar
    27    16    17   ar
    28    17    18   ar
    29    18    19   ar
    30     6     7   ar
    31     7     8   ar
    32     8     9    1
    33    27    22    1
    34     8     2   ar
    35    36    30   ar
    36    19    15   ar
    37    21    28    1
    38    21    29    1
    39    13    14    1
@<TRIPOS>MOLECULE
*****
 36 39 0 0 0
SMALL
GASTEIGER

@<TRIPOS>ATOM
      1 O         139.2889  141.7722  165.9240 O.3     1  UNL1       -0.4741
      2 C         139.7563  142.5198  164.7105 C.ar    1  UNL1        0.1513
      3 C         140.4480  141.7878  163.5988 C.ar    1  UNL1        0.0688
      4 C         140.9153  142.5354  162.3853 C.ar    1  UNL1        0.1620
      5 F         141.6070  141.8034  161.2737 F       1  UNL1       -0.2026
      6 C         140.6910  144.0150  162.2834 C.ar    1  UNL1        0.1535
      7 C         139.9993  144.7470  163.3950 C.ar    1  UNL1        0.0369
      8 C         139.5319  143.9994  164.6085 C.ar    1  UNL1        0.0930
      9 CL        138.8403  144.7315  165.7202 Cl      1  UNL1       -0.0790
     10 S         141.1584  144.7626  161.0699 S.O2    1  UNL1        0.0769
     11 O         139.7470  144.8273  160.5662 O.2     1  UNL1       -0.1498
     12 O         142.5697  144.6979  161.5736 O.2     1  UNL1       -0.1498
     13 N         141.6257  145.5102  159.8563 N.pl3   1  UNL1       -0.1984
     14 H         141.7435  146.4869  159.8949 H       1  UNL1        0.1753
     15 C         141.9135  144.7697  158.5840 C.ar    1  UNL1        0.1542
     16 C         141.0704  144.7875  157.3435 C.ar    1  UNL1        0.0725
     17 S         141.7308  143.9102  156.3216 S.2     1  UNL1       -0.0625
     18 C         142.9821  143.3503  156.9305 C.ar    1  UNL1        0.1360
     19 N         143.0951  143.8815  158.3288 N.ar    1  UNL1       -0.2203
     20 C         139.9753  140.5029  166.3334 C.3     1  UNL1        0.2110
     21 N         138.5948  139.6193  168.8461 N.3     1  UNL1       -0.3218
     22 C         140.0447  140.0024  168.8819 C.3     1  UNL1        0.0588
     23 C         140.8042  139.9437  170.1740 C.3     1  UNL1        0.0206
     24 C         142.2540  140.3268  170.2098 C.3     1  UNL1        0.0271
     25 C         142.9443  140.7686  168.9535 C.2     1  UNL1       -0.0302
     26 C         142.1847  140.8273  167.6614 C.2     1  UNL1       -0.0218
     27 C         140.7349  140.4442  167.6256 C.3     1  UNL1        0.0798
     28 H         138.2919  139.3472  169.7813 H       1  UNL1        0.1188
     29 H         138.4658  138.8360  168.2056 H       1  UNL1        0.1188
     30 C         142.8749  141.2691  166.4050 C.ar    1  UNL1       -0.0040
     31 C         143.0532  142.7312  166.1216 C.ar    1  UNL1        0.0020
     32 C         143.7434  143.1730  164.8652 C.ar    1  UNL1        0.0296
     33 C         144.2554  142.1526  163.8923 C.ar    1  UNL1        0.1401
     34 F         144.9456  142.5943  162.6359 F       1  UNL1       -0.2042
     35 C         144.0771  140.6904  164.1757 C.ar    1  UNL1        0.0296
     36 C         143.3869  140.2487  165.4320 C.ar    1  UNL1        0.0020
@<TRIPOS>BOND
     1    22    21    1
     2    22    23    1
     3    23    24    1
     4    24    25    1
     5    25    26    2
     6    26    30    1
     7    30    31   ar
     8    31    32   ar
     9    32    33   ar
    10    33    34    1
    11    33    35   ar
    12    35    36   ar
    13    26    27    1
    14    27    20    1
    15    20     1    1
    16     1     2    1
    17     2     3   ar
    18     3     4   ar
    19     4     5    1
    20     4     6   ar
    21     6    10    1
    22    10    11    2
    23    10    12    2
    24    10    13    1
    25    13    15    1
    26    15    16   ar
    27    16    17   ar
    28    17    18   ar
    29    18    19   ar
    30     6     7   ar
    31     7     8   ar
    32     8     9    1
    33    27    22    1
    34     8     2   ar
    35    36    30   ar
    36    19    15   ar
    37    21    28    1
    38    21    29    1
    39    13    14    1
@<TRIPOS>MOLECULE
*****
 36 39 0 0 0
SMALL
GASTEIGER

@<TRIPOS>ATOM
      1 O         142.0259  138.7563  166.9349 O.3     1  UNL1       -0.4741
      2 C         142.4144  138.8328  165.4882 C.ar    1  UNL1        0.1513
      3 C         143.7120  139.4731  165.0929 C.ar    1  UNL1        0.0688
      4 C         144.1005  139.5496  163.6460 C.ar    1  UNL1        0.1620
      5 F         145.3981  140.1899  163.2507 F       1  UNL1       -0.2026
      6 C         143.1914  138.9858  162.5946 C.ar    1  UNL1        0.1535
      7 C         141.8938  138.3455  162.9899 C.ar    1  UNL1        0.0369
      8 C         141.5053  138.2690  164.4366 C.ar    1  UNL1        0.0930
      9 CL        140.2077  137.6287  164.8319 Cl      1  UNL1       -0.0790
     10 S         143.5799  139.0624  161.1478 S.O2    1  UNL1        0.0769
     11 O         143.9739  137.6154  161.1771 O.2     1  UNL1       -0.1498
     12 O         143.1858  140.5093  161.1185 O.2     1  UNL1       -0.1498
     13 N         143.9684  139.1388  159.7010 N.pl3   1  UNL1       -0.1984
     14 H         144.8522  139.4901  159.4465 H       1  UNL1        0.1753
     15 C         143.0104  138.6800  158.6419 C.ar    1  UNL1        0.1542
     16 C         141.5191  138.5945  158.7791 C.ar    1  UNL1        0.0725
     17 S         140.9624  138.0878  157.4817 S.2     1  UNL1       -0.0625
     18 C         142.1097  137.8601  156.5425 C.ar    1  UNL1        0.1360
     19 N         143.3754  138.2261  157.2595 N.ar    1  UNL1       -0.2203
     20 C         142.6259  139.7110  167.9241 C.3     1  UNL1        0.2110
     21 N         141.3750  139.0410  170.5673 N.3     1  UNL1       -0.3218
     22 C         141.1305  140.3815  169.9402 C.3     1  UNL1        0.0588
     23 C         140.2606  141.3869  170.6347 C.3     1  UNL1        0.0206
     24 C         140.0161  142.7274  170.0075 C.3     1  UNL1        0.0271
     25 C         140.6415  143.0625  168.6860 C.2     1  UNL1       -0.0302
     26 C         141.5114  142.0570  167.9915 C.2     1  UNL1       -0.0218
     27 C         141.7559  140.7165  168.6187 C.3     1  UNL1        0.0798
     28 H         140.8770  138.9853  171.4557 H       1  UNL1        0.1188
     29 H         142.3746  138.9188  170.7297 H       1  UNL1        0.1188
     30 C         142.1368  142.3920  166.6699 C.ar    1  UNL1       -0.0040
     31 C         141.3247  142.3035  165.4119 C.ar    1  UNL1        0.0020
     32 C         141.9502  142.6385  164.0903 C.ar    1  UNL1        0.0296
     33 C         143.3877  143.0621  164.0267 C.ar    1  UNL1        0.1401
     34 F         144.0132  143.3971  162.7052 F       1  UNL1       -0.2042
     35 C         144.1999  143.1506  165.2848 C.ar    1  UNL1        0.0296
     36 C         143.5744  142.8156  166.6063 C.ar    1  UNL1        0.0020
@<TRIPOS>BOND
     1    22    21    1
     2    22    23    1
     3    23    24    1
     4    24    25    1
     5    25    26    2
     6    26    30    1
     7    30    31   ar
     8    31    32   ar
     9    32    33   ar
    10    33    34    1
    11    33    35   ar
    12    35    36   ar
    13    26    27    1
    14    27    20    1
    15    20     1    1
    16     1     2    1
    17     2     3   ar
    18     3     4   ar
    19     4     5    1
    20     4     6   ar
    21     6    10    1
    22    10    11    2
    23    10    12    2
    24    10    13    1
    25    13    15    1
    26    15    16   ar
    27    16    17   ar
    28    17    18   ar
    29    18    19   ar
    30     6     7   ar
    31     7     8   ar
    32     8     9    1
    33    27    22    1
    34     8     2   ar
    35    36    30   ar
    36    19    15   ar
    37    21    28    1
    38    21    29    1
    39    13    14    1
@<TRIPOS>MOLECULE
*****
 36 39 0 0 0
SMALL
GASTEIGER

@<TRIPOS>ATOM
      1 O         139.5832  139.1589  166.9740 O.3     1  UNL1       -0.4741
      2 C         139.2652  139.3599  165.5220 C.ar    1  UNL1        0.1513
      3 C         138.2158  140.3512  165.1143 C.ar    1  UNL1        0.0688
      4 C         137.8978  140.5522  163.6622 C.ar    1  UNL1        0.1620
      5 F         136.8484  141.5435  163.2544 F       1  UNL1       -0.2026
      6 C         138.6291  139.7620  162.6178 C.ar    1  UNL1        0.1535
      7 C         139.6785  138.7707  163.0255 C.ar    1  UNL1        0.0369
      8 C         139.9965  138.5697  164.4776 C.ar    1  UNL1        0.0930
      9 CL        141.0459  137.5784  164.8853 Cl      1  UNL1       -0.0790
     10 S         138.3111  139.9630  161.1658 S.O2    1  UNL1        0.0769
     11 O         137.2902  138.8665  161.2376 O.2     1  UNL1       -0.1498
     12 O         139.3320  141.0596  161.0940 O.2     1  UNL1       -0.1498
     13 N         137.9930  140.1640  159.7137 N.pl3   1  UNL1       -0.1984
     14 H         137.1811  140.6549  159.4510 H       1  UNL1        0.1753
     15 C         138.9121  139.6172  158.6620 C.ar    1  UNL1        0.1542
     16 C         139.1370  140.1997  157.2981 C.ar    1  UNL1        0.0725
     17 S         140.1315  139.3343  156.5826 S.2     1  UNL1       -0.0625
     18 C         140.5214  138.2169  157.5043 C.ar    1  UNL1        0.1360
     19 N         139.7678  138.3917  158.7894 N.ar    1  UNL1       -0.2203
     20 C         139.5887  140.3311  167.9099 C.3     1  UNL1        0.2110
     21 N         140.5718  139.3363  170.5639 N.3     1  UNL1       -0.3218
     22 C         141.3766  140.3418  169.7949 C.3     1  UNL1        0.0588
     23 C         142.6729  140.8498  170.3530 C.3     1  UNL1        0.0206
     24 C         143.4777  141.8553  169.5840 C.3     1  UNL1        0.0271
     25 C         142.9862  142.3527  168.2570 C.2     1  UNL1       -0.0302
     26 C         141.6899  141.8447  167.6990 C.2     1  UNL1       -0.0218
     27 C         140.8851  140.8392  168.4680 C.3     1  UNL1        0.0798
     28 H         141.0511  139.1123  171.4359 H       1  UNL1        0.1188
     29 H         140.4653  138.4884  170.0070 H       1  UNL1        0.1188
     30 C         141.1983  142.3421  166.3719 C.ar    1  UNL1       -0.0040
     31 C         140.0883  143.3493  166.3129 C.ar    1  UNL1        0.0020
     32 C         139.5967  143.8467  164.9858 C.ar    1  UNL1        0.0296
     33 C         140.2152  143.3369  163.7179 C.ar    1  UNL1        0.1401
     34 F         139.7237  143.8343  162.3909 F       1  UNL1       -0.2042
     35 C         141.3253  142.3297  163.7770 C.ar    1  UNL1        0.0296
     36 C         141.8168  141.8323  165.1040 C.ar    1  UNL1        0.0020
@<TRIPOS>BOND
     1    22    21    1
     2    22    23    1
     3    23    24    1
     4    24    25    1
     5    25    26    2
     6    26    30    1
     7    30    31   ar
     8    31    32   ar
     9    32    33   ar
    10    33    34    1
    11    33    35   ar
    12    35    36   ar
    13    26    27    1
    14    27    20    1
    15    20     1    1
    16     1     2    1
    17     2     3   ar
    18     3     4   ar
    19     4     5    1
    20     4     6   ar
    21     6    10    1
    22    10    11    2
    23    10    12    2
    24    10    13    1
    25    13    15    1
    26    15    16   ar
    27    16    17   ar
    28    17    18   ar
    29    18    19   ar
    30     6     7   ar
    31     7     8   ar
    32     8     9    1
    33    27    22    1
    34     8     2   ar
    35    36    30   ar
    36    19    15   ar
    37    21    28    1
    38    21    29    1
    39    13    14    1
@<TRIPOS>MOLECULE
*****
 36 39 0 0 0
SMALL
GASTEIGER

@<TRIPOS>ATOM
      1 O         143.3679  139.4586  167.1208 O.3     1  UNL1       -0.4741
      2 C         142.9796  139.2519  165.6868 C.ar    1  UNL1        0.1513
      3 C         142.1935  138.0375  165.2902 C.ar    1  UNL1        0.0688
      4 C         141.8052  137.8308  163.8561 C.ar    1  UNL1        0.1620
      5 F         141.0191  136.6163  163.4595 F       1  UNL1       -0.2026
      6 C         142.2029  138.8385  162.8187 C.ar    1  UNL1        0.1535
      7 C         142.9890  140.0529  163.2153 C.ar    1  UNL1        0.0369
      8 C         143.3773  140.2596  164.6493 C.ar    1  UNL1        0.0930
      9 CL        144.1634  141.4740  165.0458 Cl      1  UNL1       -0.0790
     10 S         141.8146  138.6317  161.3847 S.O2    1  UNL1        0.0769
     11 O         140.6838  139.6031  161.5509 O.2     1  UNL1       -0.1498
     12 O         142.9454  137.6604  161.2185 O.2     1  UNL1       -0.1498
     13 N         141.4262  138.4250  159.9506 N.pl3   1  UNL1       -0.1984
     14 H         140.7525  137.7466  159.7159 H       1  UNL1        0.1753
     15 C         142.0645  139.2519  158.8741 C.ar    1  UNL1        0.1542
     16 C         141.4558  140.4474  158.2030 C.ar    1  UNL1        0.0725
     17 S         142.4385  140.9629  157.1938 S.2     1  UNL1       -0.0625
     18 C         143.6546  140.0860  157.2412 C.ar    1  UNL1        0.1360
     19 N         143.4235  139.0286  158.2797 N.ar    1  UNL1       -0.2203
     20 C         142.3090  139.5428  168.1799 C.3     1  UNL1        0.2110
     21 N         143.7258  140.7002  170.5576 N.3     1  UNL1       -0.3218
     22 C         142.6038  141.4574  169.9112 C.3     1  UNL1        0.0588
     23 C         142.1902  142.7933  170.4537 C.3     1  UNL1        0.0206
     24 C         141.0683  143.5505  169.8073 C.3     1  UNL1        0.0271
     25 C         140.3599  142.9719  168.6185 C.2     1  UNL1       -0.0302
     26 C         140.7735  141.6360  168.0761 C.2     1  UNL1       -0.0218
     27 C         141.8954  140.8788  168.7224 C.3     1  UNL1        0.0798
     28 H         144.0892  141.2372  171.3450 H       1  UNL1        0.1188
     29 H         144.4702  140.5486  169.8769 H       1  UNL1        0.1188
     30 C         140.0651  141.0573  166.8872 C.ar    1  UNL1       -0.0040
     31 C         139.2119  139.8338  167.0449 C.ar    1  UNL1        0.0020
     32 C         138.5035  139.2550  165.8560 C.ar    1  UNL1        0.0296
     33 C         138.6484  139.8999  164.5094 C.ar    1  UNL1        0.1401
     34 F         137.9401  139.3213  163.3206 F       1  UNL1       -0.2042
     35 C         139.5017  141.1235  164.3518 C.ar    1  UNL1        0.0296
     36 C         140.2100  141.7022  165.5407 C.ar    1  UNL1        0.0020
@<TRIPOS>BOND
     1    22    21    1
     2    22    23    1
     3    23    24    1
     4    24    25    1
     5    25    26    2
     6    26    30    1
     7    30    31   ar
     8    31    32   ar
     9    32    33   ar
    10    33    34    1
    11    33    35   ar
    12    35    36   ar
    13    26    27    1
    14    27    20    1
    15    20     1    1
    16     1     2    1
    17     2     3   ar
    18     3     4   ar
    19     4     5    1
    20     4     6   ar
    21     6    10    1
    22    10    11    2
    23    10    12    2
    24    10    13    1
    25    13    15    1
    26    15    16   ar
    27    16    17   ar
    28    17    18   ar
    29    18    19   ar
    30     6     7   ar
    31     7     8   ar
    32     8     9    1
    33    27    22    1
    34     8     2   ar
    35    36    30   ar
    36    19    15   ar
    37    21    28    1
    38    21    29    1
    39    13    14    1
