@<TRIPOS>MOLECULE
*****
 36 40 0 0 0
SMALL
GASTEIGER

@<TRIPOS>ATOM
      1 C         140.3216  141.3477  161.1347 C.2     1  UNL1        0.3281
      2 C         139.6311  140.3171  160.2916 C.2     1  UNL1        0.1261
      3 C         138.7698  140.7445  159.1403 C.2     1  UNL1        0.1915
      4 N         137.9705  139.9627  158.1404 N.2     1  UNL1       -0.0708
      5 C         137.3057  140.9375  157.2143 C.cat   1  UNL1        0.4211
      6 N         137.6942  142.3218  157.6418 N.2     1  UNL1       -0.0832
      7 C         138.5991  142.2025  158.8322 C.3     1  UNL1        0.3046
      8 C         139.2896  143.2332  159.6753 C.2     1  UNL1        0.2597
      9 N         140.1509  142.8058  160.8265 N.2     1  UNL1       -0.0366
     10 N         141.1830  140.9204  162.2861 N.pl3   1  UNL1       -0.1988
     11 H         141.9888  141.4370  162.5164 H       1  UNL1        0.2985
     12 C         139.3850  138.5801  164.9395 C.ar    1  UNL1        0.0748
     13 C         140.0837  137.2769  164.6875 C.ar    1  UNL1        0.0041
     14 C         141.1489  137.1882  163.6351 C.ar    1  UNL1        0.0034
     15 C         141.5153  138.4027  162.8346 C.ar    1  UNL1        0.0401
     16 C         140.8166  139.7059  163.0865 C.ar    1  UNL1        0.1356
     17 C         139.7514  139.7946  164.1390 C.ar    1  UNL1        0.0440
     18 F         137.2547  138.7576  167.0443 F       1  UNL1       -0.1659
     19 C         138.3199  138.6689  165.9919 C.3     1  UNL1        0.4187
     20 F         138.5144  140.1544  166.0635 F       1  UNL1       -0.1659
     21 F         138.1253  137.1833  165.9202 F       1  UNL1       -0.1659
     22 N         136.4097  140.5892  156.0628 N.pl3   1  UNL1       -0.1851
     23 H         136.7931  140.4404  155.1683 H       1  UNL1        0.2530
     24 C         134.9297  140.4675  156.2742 C.ar    1  UNL1        0.1937
     25 C         133.9797  141.1667  155.3475 C.ar    1  UNL1        0.0530
     26 C         132.4997  141.0451  155.5589 C.ar    1  UNL1        0.0205
     27 C         131.9696  140.2241  156.6969 C.ar    1  UNL1        0.0676
     28 C         132.9195  139.5248  157.6235 C.ar    1  UNL1        0.1161
     29 N         134.3996  139.6465  157.4121 N.ar    1  UNL1       -0.2136
     30 N         130.4895  140.1024  156.9083 N.pl3   1  UNL1       -0.3035
     31 C         129.5392  140.7801  155.9662 C.3     1  UNL1        0.1079
     32 C         128.0592  140.6584  156.1776 C.3     1  UNL1        0.0903
     33 N         127.5295  139.8590  157.3310 N.3     1  UNL1       -0.2946
     34 C         128.4799  139.1813  158.2731 C.3     1  UNL1        0.0903
     35 C         129.9599  139.3030  158.0617 C.3     1  UNL1        0.1079
     36 H         126.9362  139.1295  156.9359 H       1  UNL1        0.1233
@<TRIPOS>BOND
     1    18    19    1
     2    19    20    1
     3    19    21    1
     4    19    12    1
     5    12    13   ar
     6    13    14   ar
     7    14    15   ar
     8    15    16   ar
     9    16    10    1
    10    10     1    1
    11     1     2    2
    12     2     3    1
    13     3     4    2
    14     4     5    1
    15     5    22    1
    16    22    24    1
    17    24    25   ar
    18    25    26   ar
    19    26    27   ar
    20    27    30    1
    21    30    31    1
    22    31    32    1
    23    32    33    1
    24    33    34    1
    25    34    35    1
    26    27    28   ar
    27    28    29   ar
    28     5     6    2
    29     6     7    1
    30     7     8    1
    31     8     9    2
    32    16    17   ar
    33    17    12   ar
    34     9     1    1
    35     7     3    1
    36    29    24   ar
    37    35    30    1
    38    10    11    1
    39    22    23    1
    40    33    36    1
@<TRIPOS>MOLECULE
*****
 36 40 0 0 0
SMALL
GASTEIGER

@<TRIPOS>ATOM
      1 C         138.5633  141.4141  162.1534 C.2     1  UNL1        0.3281
      2 C         139.8100  141.4267  161.3193 C.2     1  UNL1        0.1261
      3 C         139.8494  140.6810  160.0184 C.2     1  UNL1        0.1915
      4 N         140.9287  140.5127  158.9903 N.2     1  UNL1       -0.0708
      5 C         140.3885  139.6505  157.8881 C.cat   1  UNL1        0.4211
      6 N         138.9755  139.2860  158.2350 N.2     1  UNL1       -0.0832
      7 C         138.6423  139.9228  159.5516 C.3     1  UNL1        0.3046
      8 C         137.3956  139.9103  160.3856 C.2     1  UNL1        0.2597
      9 N         137.3562  140.6560  161.6865 N.2     1  UNL1       -0.0366
     10 N         138.5238  142.1598  163.4543 N.pl3   1  UNL1       -0.1988
     11 H         138.2905  143.1162  163.4667 H       1  UNL1        0.2985
     12 C         138.5554  139.3907  166.2970 C.ar    1  UNL1        0.0748
     13 C         139.4717  140.0253  167.3008 C.ar    1  UNL1        0.0041
     14 C         140.0721  141.3714  167.0225 C.ar    1  UNL1        0.0034
     15 C         139.7561  142.0830  165.7403 C.ar    1  UNL1        0.0401
     16 C         138.8398  141.4484  164.7365 C.ar    1  UNL1        0.1356
     17 C         138.2394  140.1022  165.0149 C.ar    1  UNL1        0.0440
     18 F         137.3545  136.6985  166.8538 F       1  UNL1       -0.1659
     19 C         137.9550  138.0446  166.5754 C.3     1  UNL1        0.4187
     20 F         137.2583  138.6045  167.7800 F       1  UNL1       -0.1659
     21 F         138.6517  137.4848  165.3708 F       1  UNL1       -0.1659
     22 N         141.1311  139.2272  156.6554 N.pl3   1  UNL1       -0.1851
     23 H         141.3687  139.8936  155.9708 H       1  UNL1        0.2530
     24 C         141.5115  137.7887  156.4659 C.ar    1  UNL1        0.1937
     25 C         142.6641  137.2105  157.2322 C.ar    1  UNL1        0.0530
     26 C         143.0445  135.7720  157.0426 C.ar    1  UNL1        0.0205
     27 C         142.2723  134.9117  156.0869 C.ar    1  UNL1        0.0676
     28 C         141.1197  135.4898  155.3206 C.ar    1  UNL1        0.1161
     29 N         140.7393  136.9284  155.5101 N.ar    1  UNL1       -0.2136
     30 N         142.6528  133.4731  155.8973 N.pl3   1  UNL1       -0.3035
     31 C         141.6065  132.4625  155.5314 C.3     1  UNL1        0.1079
     32 C         141.9870  131.0241  155.3419 C.3     1  UNL1        0.0903
     33 N         143.4138  130.5961  155.5184 N.3     1  UNL1       -0.2946
     34 C         144.4601  131.6067  155.8843 C.3     1  UNL1        0.0903
     35 C         144.0796  133.0452  156.0738 C.3     1  UNL1        0.1079
     36 H         143.7063  130.1756  154.6363 H       1  UNL1        0.1233
@<TRIPOS>BOND
     1    18    19    1
     2    19    20    1
     3    19    21    1
     4    19    12    1
     5    12    13   ar
     6    13    14   ar
     7    14    15   ar
     8    15    16   ar
     9    16    10    1
    10    10     1    1
    11     1     2    2
    12     2     3    1
    13     3     4    2
    14     4     5    1
    15     5    22    1
    16    22    24    1
    17    24    25   ar
    18    25    26   ar
    19    26    27   ar
    20    27    30    1
    21    30    31    1
    22    31    32    1
    23    32    33    1
    24    33    34    1
    25    34    35    1
    26    27    28   ar
    27    28    29   ar
    28     5     6    2
    29     6     7    1
    30     7     8    1
    31     8     9    2
    32    16    17   ar
    33    17    12   ar
    34     9     1    1
    35     7     3    1
    36    29    24   ar
    37    35    30    1
    38    10    11    1
    39    22    23    1
    40    33    36    1
@<TRIPOS>MOLECULE
*****
 36 40 0 0 0
SMALL
GASTEIGER

@<TRIPOS>ATOM
      1 C         141.7636  137.9467  158.1662 C.2     1  UNL1        0.3281
      2 C         140.3602  138.2251  158.6167 C.2     1  UNL1        0.1261
      3 C         140.0930  138.6165  160.0398 C.2     1  UNL1        0.1915
      4 N         138.8246  138.9494  160.7681 N.2     1  UNL1       -0.0708
      5 C         139.1769  139.2680  162.1909 C.cat   1  UNL1        0.4211
      6 N         140.6631  139.1321  162.3419 N.2     1  UNL1       -0.0832
      7 C         141.2293  138.7294  161.0125 C.3     1  UNL1        0.3046
      8 C         142.6327  138.4510  160.5621 C.2     1  UNL1        0.2597
      9 N         142.8998  138.0597  159.1389 N.2     1  UNL1       -0.0366
     10 N         142.0308  137.5553  156.7430 N.pl3   1  UNL1       -0.1988
     11 H         142.1011  138.2480  156.0469 H       1  UNL1        0.2985
     12 C         143.4189  133.8380  156.6740 C.ar    1  UNL1        0.0748
     13 C         142.5110  133.2153  155.6552 C.ar    1  UNL1        0.0041
     14 C         141.4430  134.0392  154.9990 C.ar    1  UNL1        0.0034
     15 C         141.2829  135.4859  155.3616 C.ar    1  UNL1        0.0401
     16 C         142.1908  136.1087  156.3804 C.ar    1  UNL1        0.1356
     17 C         143.2588  135.2847  157.0366 C.ar    1  UNL1        0.0440
     18 F         145.5548  132.1902  157.9864 F       1  UNL1       -0.1659
     19 C         144.4868  133.0141  157.3302 C.3     1  UNL1        0.4187
     20 F         144.2662  133.7529  158.6168 F       1  UNL1       -0.1659
     21 F         144.7074  132.2754  156.0435 F       1  UNL1       -0.1659
     22 N         138.2124  139.6547  163.2726 N.pl3   1  UNL1       -0.1851
     23 H         137.2439  139.6411  163.0965 H       1  UNL1        0.2530
     24 C         138.7236  140.0623  164.6227 C.ar    1  UNL1        0.1937
     25 C         138.4355  139.2093  165.8225 C.ar    1  UNL1        0.0530
     26 C         138.9466  139.6168  167.1726 C.ar    1  UNL1        0.0205
     27 C         139.7458  140.8772  167.3228 C.ar    1  UNL1        0.0676
     28 C         140.0339  141.7302  166.1231 C.ar    1  UNL1        0.1161
     29 N         139.5228  141.3227  164.7729 N.ar    1  UNL1       -0.2136
     30 N         140.2570  141.2847  168.6729 N.pl3   1  UNL1       -0.3035
     31 C         140.6224  142.7155  168.9360 C.3     1  UNL1        0.1079
     32 C         141.1335  143.1229  170.2861 C.3     1  UNL1        0.0903
     33 N         141.2792  142.0996  171.3731 N.3     1  UNL1       -0.2946
     34 C         140.9138  140.6688  171.1100 C.3     1  UNL1        0.0903
     35 C         140.4027  140.2614  169.7599 C.3     1  UNL1        0.1079
     36 H         140.7001  142.4129  172.1520 H       1  UNL1        0.1233
@<TRIPOS>BOND
     1    18    19    1
     2    19    20    1
     3    19    21    1
     4    19    12    1
     5    12    13   ar
     6    13    14   ar
     7    14    15   ar
     8    15    16   ar
     9    16    10    1
    10    10     1    1
    11     1     2    2
    12     2     3    1
    13     3     4    2
    14     4     5    1
    15     5    22    1
    16    22    24    1
    17    24    25   ar
    18    25    26   ar
    19    26    27   ar
    20    27    30    1
    21    30    31    1
    22    31    32    1
    23    32    33    1
    24    33    34    1
    25    34    35    1
    26    27    28   ar
    27    28    29   ar
    28     5     6    2
    29     6     7    1
    30     7     8    1
    31     8     9    2
    32    16    17   ar
    33    17    12   ar
    34     9     1    1
    35     7     3    1
    36    29    24   ar
    37    35    30    1
    38    10    11    1
    39    22    23    1
    40    33    36    1
@<TRIPOS>MOLECULE
*****
 36 40 0 0 0
SMALL
GASTEIGER

@<TRIPOS>ATOM
      1 C         138.7878  140.2632  158.2999 C.2     1  UNL1        0.3281
      2 C         138.0657  140.2427  159.6144 C.2     1  UNL1        0.1261
      3 C         138.5367  139.3388  160.7148 C.2     1  UNL1        0.1915
      4 N         138.0301  139.1041  162.1071 N.2     1  UNL1       -0.0708
      5 C         138.9102  138.0757  162.7534 C.cat   1  UNL1        0.4211
      6 N         139.9607  137.6747  161.7607 N.2     1  UNL1       -0.0832
      7 C         139.7299  138.4553  160.5007 C.3     1  UNL1        0.3046
      8 C         140.4521  138.4758  159.1862 C.2     1  UNL1        0.2597
      9 N         139.9810  139.3797  158.0858 N.2     1  UNL1       -0.0366
     10 N         138.3168  141.1671  157.1994 N.pl3   1  UNL1       -0.1988
     11 H         138.6835  142.0773  157.1191 H       1  UNL1        0.2985
     12 C         134.8029  140.4716  155.4910 C.ar    1  UNL1        0.0748
     13 C         135.2277  139.7189  154.2650 C.ar    1  UNL1        0.0041
     14 C         136.6822  139.4489  154.0172 C.ar    1  UNL1        0.0034
     15 C         137.7120  139.9317  154.9953 C.ar    1  UNL1        0.0401
     16 C         137.2871  140.6844  156.2213 C.ar    1  UNL1        0.1356
     17 C         135.8325  140.9544  156.4691 C.ar    1  UNL1        0.0440
     18 F         131.8938  141.0116  155.9866 F       1  UNL1       -0.1659
     19 C         133.3484  140.7416  155.7388 C.3     1  UNL1        0.4187
     20 F         133.2148  141.2957  154.3513 F       1  UNL1       -0.1659
     21 F         133.4820  140.1876  157.1263 F       1  UNL1       -0.1659
     22 N         138.7652  137.5420  164.1478 N.pl3   1  UNL1       -0.1851
     23 H         138.3945  136.6418  164.2942 H       1  UNL1        0.2530
     24 C         139.1852  138.3797  165.3190 C.ar    1  UNL1        0.1937
     25 C         138.2101  138.6703  166.4212 C.ar    1  UNL1        0.0530
     26 C         138.6301  139.5081  167.5925 C.ar    1  UNL1        0.0205
     27 C         140.0250  140.0553  167.6614 C.ar    1  UNL1        0.0676
     28 C         141.0000  139.7647  166.5592 C.ar    1  UNL1        0.1161
     29 N         140.5801  138.9269  165.3879 N.ar    1  UNL1       -0.2136
     30 N         140.4449  140.8931  168.8327 N.pl3   1  UNL1       -0.3035
     31 C         140.4776  142.3879  168.7123 C.3     1  UNL1        0.1079
     32 C         140.8975  143.2256  169.8836 C.3     1  UNL1        0.0903
     33 N         141.2847  142.5685  171.1752 N.3     1  UNL1       -0.2946
     34 C         141.2519  141.0738  171.2956 C.3     1  UNL1        0.0903
     35 C         140.8321  140.2360  170.1244 C.3     1  UNL1        0.1079
     36 H         140.6581  142.9354  171.8916 H       1  UNL1        0.1233
@<TRIPOS>BOND
     1    18    19    1
     2    19    20    1
     3    19    21    1
     4    19    12    1
     5    12    13   ar
     6    13    14   ar
     7    14    15   ar
     8    15    16   ar
     9    16    10    1
    10    10     1    1
    11     1     2    2
    12     2     3    1
    13     3     4    2
    14     4     5    1
    15     5    22    1
    16    22    24    1
    17    24    25   ar
    18    25    26   ar
    19    26    27   ar
    20    27    30    1
    21    30    31    1
    22    31    32    1
    23    32    33    1
    24    33    34    1
    25    34    35    1
    26    27    28   ar
    27    28    29   ar
    28     5     6    2
    29     6     7    1
    30     7     8    1
    31     8     9    2
    32    16    17   ar
    33    17    12   ar
    34     9     1    1
    35     7     3    1
    36    29    24   ar
    37    35    30    1
    38    10    11    1
    39    22    23    1
    40    33    36    1
@<TRIPOS>MOLECULE
*****
 36 40 0 0 0
SMALL
GASTEIGER

@<TRIPOS>ATOM
      1 C         140.2572  140.1899  161.6293 C.2     1  UNL1        0.3281
      2 C         139.8330  139.6266  160.3055 C.2     1  UNL1        0.1261
      3 C         140.8367  138.9430  159.4250 C.2     1  UNL1        0.1915
      4 N         140.7136  138.2955  158.0776 N.2     1  UNL1       -0.0708
      5 C         142.0655  137.7750  157.6882 C.cat   1  UNL1        0.4211
      6 N         143.0240  138.1008  158.7950 N.2     1  UNL1       -0.0832
      7 C         142.2646  138.8227  159.8684 C.3     1  UNL1        0.3046
      8 C         142.6888  139.3860  161.1923 C.2     1  UNL1        0.2597
      9 N         141.6851  140.0696  162.0728 N.2     1  UNL1       -0.0366
     10 N         139.2535  140.8736  162.5099 N.pl3   1  UNL1       -0.1988
     11 H         138.5979  141.4952  162.1186 H       1  UNL1        0.2985
     12 C         138.6089  139.0983  166.0003 C.ar    1  UNL1        0.0748
     13 C         139.2389  140.0833  166.9399 C.ar    1  UNL1        0.0041
     14 C         139.8738  141.3317  166.4029 C.ar    1  UNL1        0.0034
     15 C         139.8786  141.5952  164.9262 C.ar    1  UNL1        0.0401
     16 C         139.2486  140.6102  163.9865 C.ar    1  UNL1        0.1356
     17 C         138.6138  139.3617  164.5236 C.ar    1  UNL1        0.0440
     18 F         137.3392  136.6015  167.0743 F       1  UNL1       -0.1659
     19 C         137.9741  137.8500  166.5373 C.3     1  UNL1        0.4187
     20 F         138.6382  137.0478  165.4577 F       1  UNL1       -0.1659
     21 F         137.3100  138.6521  167.6169 F       1  UNL1       -0.1659
     22 N         142.4000  137.0550  156.4155 N.pl3   1  UNL1       -0.1851
     23 H         142.5959  137.5666  155.5975 H       1  UNL1        0.2530
     24 C         142.4361  135.5557  156.3892 C.ar    1  UNL1        0.1937
     25 C         141.6081  134.8030  155.3902 C.ar    1  UNL1        0.0530
     26 C         141.6442  133.3037  155.3639 C.ar    1  UNL1        0.0205
     27 C         142.5083  132.5570  156.3364 C.ar    1  UNL1        0.0676
     28 C         143.3362  133.3097  157.3354 C.ar    1  UNL1        0.1161
     29 N         143.3002  134.8091  157.3618 N.ar    1  UNL1       -0.2136
     30 N         142.5443  131.0576  156.3101 N.pl3   1  UNL1       -0.3035
     31 C         141.7087  130.3047  155.3177 C.3     1  UNL1        0.1079
     32 C         141.7448  128.8054  155.2914 C.3     1  UNL1        0.0903
     33 N         142.6165  128.0590  156.2574 N.3     1  UNL1       -0.2946
     34 C         143.4521  128.8120  157.2497 C.3     1  UNL1        0.0903
     35 C         143.4160  130.3113  157.2760 C.3     1  UNL1        0.1079
     36 H         143.2581  127.4951  155.6999 H       1  UNL1        0.1233
@<TRIPOS>BOND
     1    18    19    1
     2    19    20    1
     3    19    21    1
     4    19    12    1
     5    12    13   ar
     6    13    14   ar
     7    14    15   ar
     8    15    16   ar
     9    16    10    1
    10    10     1    1
    11     1     2    2
    12     2     3    1
    13     3     4    2
    14     4     5    1
    15     5    22    1
    16    22    24    1
    17    24    25   ar
    18    25    26   ar
    19    26    27   ar
    20    27    30    1
    21    30    31    1
    22    31    32    1
    23    32    33    1
    24    33    34    1
    25    34    35    1
    26    27    28   ar
    27    28    29   ar
    28     5     6    2
    29     6     7    1
    30     7     8    1
    31     8     9    2
    32    16    17   ar
    33    17    12   ar
    34     9     1    1
    35     7     3    1
    36    29    24   ar
    37    35    30    1
    38    10    11    1
    39    22    23    1
    40    33    36    1
@<TRIPOS>MOLECULE
*****
 36 40 0 0 0
SMALL
GASTEIGER

@<TRIPOS>ATOM
      1 C         141.7395  138.9895  163.2171 C.2     1  UNL1        0.3281
      2 C         142.6221  138.1035  162.3889 C.2     1  UNL1        0.1261
      3 C         142.4941  138.1034  160.8944 C.2     1  UNL1        0.1915
      4 N         143.2207  137.3431  159.8248 N.2     1  UNL1       -0.0708
      5 C         142.6592  137.7591  158.4975 C.cat   1  UNL1        0.4211
      6 N         141.5856  138.7765  158.7468 N.2     1  UNL1       -0.0832
      7 C         141.4835  138.9893  160.2281 C.3     1  UNL1        0.3046
      8 C         140.6009  139.8753  161.0563 C.2     1  UNL1        0.2597
      9 N         140.7289  139.8754  162.5508 N.2     1  UNL1       -0.0366
     10 N         141.8675  138.9896  164.7117 N.pl3   1  UNL1       -0.1988
     11 H         142.7590  138.9880  165.1294 H       1  UNL1        0.2985
     12 C         139.3789  139.7953  167.6963 C.ar    1  UNL1        0.0748
     13 C         138.1766  138.9976  167.2860 C.ar    1  UNL1        0.0041
     14 C         138.2046  138.1973  166.0177 C.ar    1  UNL1        0.0034
     15 C         139.4349  138.1946  165.1595 C.ar    1  UNL1        0.0401
     16 C         140.6372  138.9923  165.5698 C.ar    1  UNL1        0.1356
     17 C         140.6091  139.7926  166.8382 C.ar    1  UNL1        0.0440
     18 F         139.3228  141.3959  170.2330 F       1  UNL1       -0.1659
     19 C         139.3508  140.5956  168.9646 C.3     1  UNL1        0.4187
     20 F         138.1697  139.8021  169.4392 F       1  UNL1       -0.1659
     21 F         140.5319  141.3891  168.4900 F       1  UNL1       -0.1659
     22 N         143.0948  137.2475  157.1565 N.pl3   1  UNL1       -0.1851
     23 H         143.5975  137.8335  156.5456 H       1  UNL1        0.2530
     24 C         142.7647  135.8430  156.7461 C.ar    1  UNL1        0.1937
     25 C         141.7546  135.5952  155.6652 C.ar    1  UNL1        0.0530
     26 C         141.4245  134.1907  155.2549 C.ar    1  UNL1        0.0205
     27 C         142.1045  133.0339  155.9254 C.ar    1  UNL1        0.0676
     28 C         143.1146  133.2817  157.0063 C.ar    1  UNL1        0.1161
     29 N         143.4447  134.6862  157.4167 N.ar    1  UNL1       -0.2136
     30 N         141.7743  131.6294  155.5151 N.pl3   1  UNL1       -0.3035
     31 C         140.7158  131.3790  154.4822 C.3     1  UNL1        0.1079
     32 C         140.3857  129.9745  154.0719 C.3     1  UNL1        0.0903
     33 N         141.1141  128.8204  154.6944 N.3     1  UNL1       -0.2946
     34 C         142.1726  129.0708  155.7272 C.3     1  UNL1        0.0903
     35 C         142.5027  130.4753  156.1376 C.3     1  UNL1        0.1079
     36 H         141.5606  128.3090  153.9332 H       1  UNL1        0.1233
@<TRIPOS>BOND
     1    18    19    1
     2    19    20    1
     3    19    21    1
     4    19    12    1
     5    12    13   ar
     6    13    14   ar
     7    14    15   ar
     8    15    16   ar
     9    16    10    1
    10    10     1    1
    11     1     2    2
    12     2     3    1
    13     3     4    2
    14     4     5    1
    15     5    22    1
    16    22    24    1
    17    24    25   ar
    18    25    26   ar
    19    26    27   ar
    20    27    30    1
    21    30    31    1
    22    31    32    1
    23    32    33    1
    24    33    34    1
    25    34    35    1
    26    27    28   ar
    27    28    29   ar
    28     5     6    2
    29     6     7    1
    30     7     8    1
    31     8     9    2
    32    16    17   ar
    33    17    12   ar
    34     9     1    1
    35     7     3    1
    36    29    24   ar
    37    35    30    1
    38    10    11    1
    39    22    23    1
    40    33    36    1
@<TRIPOS>MOLECULE
*****
 36 40 0 0 0
SMALL
GASTEIGER

@<TRIPOS>ATOM
      1 C         141.6511  137.9886  157.8335 C.2     1  UNL1        0.3281
      2 C         142.9651  138.2807  158.4953 C.2     1  UNL1        0.1261
      3 C         142.9954  138.8907  159.8653 C.2     1  UNL1        0.1915
      4 N         144.1303  139.2879  160.7623 N.2     1  UNL1       -0.0708
      5 C         143.5481  139.8511  162.0247 C.cat   1  UNL1        0.4211
      6 N         142.0535  139.8021  161.9080 N.2     1  UNL1       -0.0832
      7 C         141.7119  139.2085  160.5735 C.3     1  UNL1        0.3046
      8 C         140.3979  138.9163  159.9116 C.2     1  UNL1        0.2597
      9 N         140.3675  138.3064  158.5416 N.2     1  UNL1       -0.0366
     10 N         141.6207  137.3786  156.4634 N.pl3   1  UNL1       -0.1988
     11 H         141.4020  137.9353  155.6814 H       1  UNL1        0.2985
     12 C         143.3523  133.8309  156.8697 C.ar    1  UNL1        0.0748
     13 C         142.5288  133.0039  155.9275 C.ar    1  UNL1        0.0041
     14 C         141.4025  133.6350  155.1640 C.ar    1  UNL1        0.0034
     15 C         141.0997  135.0933  155.3426 C.ar    1  UNL1        0.0401
     16 C         141.9233  135.9204  156.2848 C.ar    1  UNL1        0.1356
     17 C         143.0497  135.2891  157.0483 C.ar    1  UNL1        0.0440
     18 F         145.6049  132.5685  158.3969 F       1  UNL1       -0.1659
     19 C         144.4786  133.1997  157.6333 C.3     1  UNL1        0.4187
     20 F         144.0885  133.9798  158.8536 F       1  UNL1       -0.1659
     21 F         144.8687  132.4196  156.4130 F       1  UNL1       -0.1659
     22 N         144.3243  140.3720  163.1978 N.pl3   1  UNL1       -0.1851
     23 H         145.2452  140.6971  163.0736 H       1  UNL1        0.2530
     24 C         143.6974  140.3975  164.5603 C.ar    1  UNL1        0.1937
     25 C         143.5546  141.6969  165.2960 C.ar    1  UNL1        0.0530
     26 C         142.9277  141.7224  166.6585 C.ar    1  UNL1        0.0205
     27 C         142.4435  140.4485  167.2852 C.ar    1  UNL1        0.0676
     28 C         142.5863  139.1491  166.5496 C.ar    1  UNL1        0.1161
     29 N         143.2132  139.1236  165.1871 N.ar    1  UNL1       -0.2136
     30 N         141.8166  140.4740  168.6478 N.pl3   1  UNL1       -0.3035
     31 C         142.6442  140.8278  169.8477 C.3     1  UNL1        0.1079
     32 C         142.0173  140.8533  171.2101 C.3     1  UNL1        0.0903
     33 N         140.5627  140.5250  171.3726 N.3     1  UNL1       -0.2946
     34 C         139.7350  140.1713  170.1727 C.3     1  UNL1        0.0903
     35 C         140.3620  140.1458  168.8103 C.3     1  UNL1        0.1079
     36 H         140.1236  141.3386  171.8037 H       1  UNL1        0.1233
@<TRIPOS>BOND
     1    18    19    1
     2    19    20    1
     3    19    21    1
     4    19    12    1
     5    12    13   ar
     6    13    14   ar
     7    14    15   ar
     8    15    16   ar
     9    16    10    1
    10    10     1    1
    11     1     2    2
    12     2     3    1
    13     3     4    2
    14     4     5    1
    15     5    22    1
    16    22    24    1
    17    24    25   ar
    18    25    26   ar
    19    26    27   ar
    20    27    30    1
    21    30    31    1
    22    31    32    1
    23    32    33    1
    24    33    34    1
    25    34    35    1
    26    27    28   ar
    27    28    29   ar
    28     5     6    2
    29     6     7    1
    30     7     8    1
    31     8     9    2
    32    16    17   ar
    33    17    12   ar
    34     9     1    1
    35     7     3    1
    36    29    24   ar
    37    35    30    1
    38    10    11    1
    39    22    23    1
    40    33    36    1
@<TRIPOS>MOLECULE
*****
 36 40 0 0 0
SMALL
GASTEIGER

@<TRIPOS>ATOM
      1 C         143.5613  139.0681  163.1521 C.2     1  UNL1        0.3281
      2 C         142.9871  138.0527  162.2091 C.2     1  UNL1        0.1261
      3 C         143.0564  138.2809  160.7283 C.2     1  UNL1        0.1915
      4 N         142.5803  137.4644  159.5635 N.2     1  UNL1       -0.0708
      5 C         142.9294  138.2034  158.3057 C.cat   1  UNL1        0.4211
      6 N         143.6213  139.4767  158.6932 N.2     1  UNL1       -0.0832
      7 C         143.6998  139.5246  160.1904 C.3     1  UNL1        0.3046
      8 C         144.2739  140.5400  161.1334 C.2     1  UNL1        0.2597
      9 N         144.2047  140.3117  162.6142 N.2     1  UNL1       -0.0366
     10 N         143.4921  138.8398  164.6331 N.pl3   1  UNL1       -0.1988
     11 H         144.0947  138.1884  165.0595 H       1  UNL1        0.2985
     12 C         140.1322  139.8298  166.4989 C.ar    1  UNL1        0.0748
     13 C         140.5301  141.1326  167.1270 C.ar    1  UNL1        0.0041
     14 C         141.9153  141.6711  166.9239 C.ar    1  UNL1        0.0034
     15 C         142.9026  140.9068  166.0925 C.ar    1  UNL1        0.0401
     16 C         142.5048  139.6041  165.4644 C.ar    1  UNL1        0.1356
     17 C         141.1195  139.0656  165.6676 C.ar    1  UNL1        0.0440
     18 F         137.3618  138.7529  166.9053 F       1  UNL1       -0.1659
     19 C         138.7471  139.2914  166.7021 C.3     1  UNL1        0.4187
     20 F         138.7534  139.8065  168.1108 F       1  UNL1       -0.1659
     21 F         138.7407  138.7762  165.2933 F       1  UNL1       -0.1659
     22 N         142.6379  137.7490  156.9063 N.pl3   1  UNL1       -0.1851
     23 H         142.5464  138.4105  156.1829 H       1  UNL1        0.2530
     24 C         142.4858  136.2867  156.6090 C.ar    1  UNL1        0.1937
     25 C         141.4732  135.8274  155.6020 C.ar    1  UNL1        0.0530
     26 C         141.3211  134.3651  155.3047 C.ar    1  UNL1        0.0205
     27 C         142.1815  133.3620  156.0142 C.ar    1  UNL1        0.0676
     28 C         143.1941  133.8212  157.0211 C.ar    1  UNL1        0.1161
     29 N         143.3462  135.2836  157.3185 N.ar    1  UNL1       -0.2136
     30 N         142.0294  131.8996  155.7169 N.pl3   1  UNL1       -0.3035
     31 C         141.0192  131.4406  154.7075 C.3     1  UNL1        0.1079
     32 C         140.8670  129.9783  154.4102 C.3     1  UNL1        0.0903
     33 N         141.7251  128.9750  155.1222 N.3     1  UNL1       -0.2946
     34 C         142.7354  129.4339  156.1315 C.3     1  UNL1        0.0903
     35 C         142.8875  130.8962  156.4288 C.3     1  UNL1        0.1079
     36 H         142.2379  128.4636  154.4039 H       1  UNL1        0.1233
@<TRIPOS>BOND
     1    18    19    1
     2    19    20    1
     3    19    21    1
     4    19    12    1
     5    12    13   ar
     6    13    14   ar
     7    14    15   ar
     8    15    16   ar
     9    16    10    1
    10    10     1    1
    11     1     2    2
    12     2     3    1
    13     3     4    2
    14     4     5    1
    15     5    22    1
    16    22    24    1
    17    24    25   ar
    18    25    26   ar
    19    26    27   ar
    20    27    30    1
    21    30    31    1
    22    31    32    1
    23    32    33    1
    24    33    34    1
    25    34    35    1
    26    27    28   ar
    27    28    29   ar
    28     5     6    2
    29     6     7    1
    30     7     8    1
    31     8     9    2
    32    16    17   ar
    33    17    12   ar
    34     9     1    1
    35     7     3    1
    36    29    24   ar
    37    35    30    1
    38    10    11    1
    39    22    23    1
    40    33    36    1
@<TRIPOS>MOLECULE
*****
 36 40 0 0 0
SMALL
GASTEIGER

@<TRIPOS>ATOM
      1 C         138.8326  138.7286  163.3403 C.2     1  UNL1        0.3281
      2 C         139.8193  138.0952  162.4047 C.2     1  UNL1        0.1261
      3 C         139.8445  138.4940  160.9589 C.2     1  UNL1        0.1915
      4 N         140.6972  138.0463  159.8090 N.2     1  UNL1       -0.0708
      5 C         140.2629  138.8018  158.5881 C.cat   1  UNL1        0.4211
      6 N         139.1418  139.7165  158.9835 N.2     1  UNL1       -0.0832
      7 C         138.8832  139.5263  160.4488 C.3     1  UNL1        0.3046
      8 C         137.8966  140.1597  161.3843 C.2     1  UNL1        0.2597
      9 N         137.8713  139.7608  162.8301 N.2     1  UNL1       -0.0366
     10 N         138.8073  138.3297  164.7861 N.pl3   1  UNL1       -0.1988
     11 H         138.1669  137.6502  165.0981 H       1  UNL1        0.2985
     12 C         140.1785  140.3501  167.9146 C.ar    1  UNL1        0.0748
     13 C         141.6585  140.2391  167.6972 C.ar    1  UNL1        0.0041
     14 C         142.1881  139.4917  166.5094 C.ar    1  UNL1        0.0034
     15 C         141.2377  138.8552  165.5390 C.ar    1  UNL1        0.0401
     16 C         139.7577  138.9662  165.7564 C.ar    1  UNL1        0.1356
     17 C         139.2281  139.7136  166.9443 C.ar    1  UNL1        0.0440
     18 F         139.1193  141.8450  170.2902 F       1  UNL1       -0.1659
     19 C         139.6489  141.0975  169.1024 C.3     1  UNL1        0.4187
     20 F         140.6182  142.2104  168.8342 F       1  UNL1       -0.1659
     21 F         138.6797  139.9846  169.3705 F       1  UNL1       -0.1659
     22 N         140.8472  138.6664  157.2132 N.pl3   1  UNL1       -0.1851
     23 H         140.8688  139.4433  156.6088 H       1  UNL1        0.2530
     24 C         141.3984  137.3474  156.7591 C.ar    1  UNL1        0.1937
     25 C         140.6706  136.5485  155.7187 C.ar    1  UNL1        0.0530
     26 C         141.2219  135.2295  155.2646 C.ar    1  UNL1        0.0205
     27 C         142.5008  134.7092  155.8508 C.ar    1  UNL1        0.0676
     28 C         143.2286  135.5080  156.8911 C.ar    1  UNL1        0.1161
     29 N         142.6773  136.8271  157.3453 N.ar    1  UNL1       -0.2136
     30 N         143.0520  133.3901  155.3966 N.pl3   1  UNL1       -0.3035
     31 C         142.6088  132.8019  154.0899 C.3     1  UNL1        0.1079
     32 C         143.1600  131.4829  153.6358 C.3     1  UNL1        0.0903
     33 N         144.1545  130.7520  154.4884 N.3     1  UNL1       -0.2946
     34 C         144.5977  131.3402  155.7951 C.3     1  UNL1        0.0903
     35 C         144.0465  132.6593  156.2492 C.3     1  UNL1        0.1079
     36 H         144.9934  130.6281  153.9217 H       1  UNL1        0.1233
@<TRIPOS>BOND
     1    18    19    1
     2    19    20    1
     3    19    21    1
     4    19    12    1
     5    12    13   ar
     6    13    14   ar
     7    14    15   ar
     8    15    16   ar
     9    16    10    1
    10    10     1    1
    11     1     2    2
    12     2     3    1
    13     3     4    2
    14     4     5    1
    15     5    22    1
    16    22    24    1
    17    24    25   ar
    18    25    26   ar
    19    26    27   ar
    20    27    30    1
    21    30    31    1
    22    31    32    1
    23    32    33    1
    24    33    34    1
    25    34    35    1
    26    27    28   ar
    27    28    29   ar
    28     5     6    2
    29     6     7    1
    30     7     8    1
    31     8     9    2
    32    16    17   ar
    33    17    12   ar
    34     9     1    1
    35     7     3    1
    36    29    24   ar
    37    35    30    1
    38    10    11    1
    39    22    23    1
    40    33    36    1
