@<TRIPOS>MOLECULE
*****
 40 44 0 0 0
SMALL
GASTEIGER

@<TRIPOS>ATOM
      1 C         141.7359  140.9667  166.9975 C.3     1  UNL1        0.1836
      2 C         141.8044  141.1288  168.4872 C.2     1  UNL1        0.1125
      3 C         141.2517  142.1745  169.4095 C.2     1  UNL1        0.3424
      4 N         140.4643  143.3242  168.8540 N.pl3   1  UNL1       -0.2446
      5 N         141.4862  142.0708  170.8874 N.2     1  UNL1        0.0722
      6 N         142.2735  140.9212  171.4430 N.am    1  UNL1        0.0405
      7 C         142.8263  139.8754  170.5206 C.2     1  UNL1        0.3289
      8 O         143.6136  138.7258  171.0762 O.2     1  UNL1       -0.2626
      9 C         142.5917  139.9791  169.0427 C.2     1  UNL1        0.1626
     10 N         143.0097  139.1067  167.8964 N.2     1  UNL1       -0.1725
     11 N         142.4807  139.7171  166.6324 N.pl3   1  UNL1       -0.2013
     12 H         140.3104  143.3923  167.8840 H       1  UNL1        0.2885
     13 H         140.1016  144.0106  169.4594 H       1  UNL1        0.2885
     14 C         139.5089  146.2704  161.6557 C.3     1  UNL1        0.0310
     15 C         139.4443  145.1936  162.6980 C.ar    1  UNL1       -0.0217
     16 C         138.1163  144.6427  163.1259 C.ar    1  UNL1       -0.0011
     17 C         138.0517  143.5660  164.1682 C.ar    1  UNL1        0.0371
     18 C         139.3149  143.0402  164.7827 C.ar    1  UNL1        0.1446
     19 O         139.5627  141.9901  165.8247 O.2     1  UNL1       -0.4560
     20 C         141.0439  141.8919  166.0409 C.ar    1  UNL1        0.1432
     21 C         141.7114  142.8814  165.1325 C.ar    1  UNL1        0.0134
     22 C         143.1882  143.1195  165.0212 C.3     1  UNL1        0.0340
     23 C         140.6428  143.5911  164.3549 C.ar    1  UNL1        0.0329
     24 C         140.7075  144.6678  163.3126 C.ar    1  UNL1       -0.0015
     25 C         142.6644  139.1732  165.2466 C.ar    1  UNL1        0.0699
     26 C         141.6335  138.2562  164.6580 C.ar    1  UNL1        0.0176
     27 C         141.8173  137.7123  163.2722 C.ar    1  UNL1        0.0160
     28 C         143.0319  138.0854  162.4750 C.ar    1  UNL1        0.0506
     29 C         144.0628  139.0023  163.0636 C.ar    1  UNL1        0.0160
     30 C         143.8791  139.5462  164.4494 C.ar    1  UNL1        0.0176
     31 N         143.2156  137.5415  161.0892 N.am    1  UNL1       -0.2804
     32 C         142.5311  138.1999  159.9282 C.2     1  UNL1        0.2494
     33 O         141.6628  139.4022  160.1530 O.2     1  UNL1       -0.2698
     34 H         143.7855  136.7523  160.9417 H       1  UNL1        0.1552
     35 C         142.7148  137.6560  158.5425 C.2     1  UNL1        0.0549
     36 C         141.6225  137.8089  157.5258 C.2     1  UNL1       -0.0041
     37 C         141.8062  137.2650  156.1400 C.3     1  UNL1        0.0991
     38 N         142.7390  136.1143  155.9036 N.3     1  UNL1       -0.2665
     39 C         142.2500  134.7061  156.0699 C.3     1  UNL1        0.0899
     40 C         144.1608  136.3718  155.5008 C.3     1  UNL1        0.0899
@<TRIPOS>BOND
     1    14    15    1
     2    15    16   ar
     3    16    17   ar
     4    17    18   ar
     5    18    19   ar
     6    19    20   ar
     7    20     1    1
     8     1     2    1
     9     2     3    2
    10     3     4    1
    11     3     5    1
    12     5     6    2
    13     6     7    1
    14     7     8    2
    15     7     9    1
    16     9    10    2
    17    10    11    1
    18    11    25    1
    19    25    26   ar
    20    26    27   ar
    21    27    28   ar
    22    28    31    1
    23    31    32   am
    24    32    33    2
    25    32    35    1
    26    35    36    2
    27    36    37    1
    28    37    38    1
    29    38    39    1
    30    38    40    1
    31    28    29   ar
    32    29    30   ar
    33    20    21   ar
    34    21    22    1
    35    21    23   ar
    36    23    24   ar
    37    24    15   ar
    38    23    18   ar
    39    11     1    1
    40    30    25   ar
    41     9     2    1
    42     4    12    1
    43     4    13    1
    44    31    34    1
@<TRIPOS>MOLECULE
*****
 40 44 0 0 0
SMALL
GASTEIGER

@<TRIPOS>ATOM
      1 C         141.7201  141.4252  167.0825 C.3     1  UNL1        0.1836
      2 C         141.4524  141.5723  168.5510 C.2     1  UNL1        0.1125
      3 C         140.3931  140.9931  169.4412 C.2     1  UNL1        0.3424
      4 N         139.3493  140.0803  168.8690 N.pl3   1  UNL1       -0.2446
      5 N         140.3776  141.3267  170.9035 N.2     1  UNL1        0.0722
      6 N         141.4213  142.2395  171.4757 N.am    1  UNL1        0.0405
      7 C         142.4806  142.8187  170.5856 C.2     1  UNL1        0.3289
      8 O         143.5243  143.7315  171.1578 O.2     1  UNL1       -0.2626
      9 C         142.4962  142.4852  169.1232 C.2     1  UNL1        0.1626
     10 N         143.4089  142.9021  168.0083 N.2     1  UNL1       -0.1725
     11 N         142.9292  142.2470  166.7470 N.pl3   1  UNL1       -0.2013
     12 H         139.3595  139.8614  167.9092 H       1  UNL1        0.2885
     13 H         138.6541  139.7002  169.4533 H       1  UNL1        0.2885
     14 C         137.2601  138.4295  161.3590 C.3     1  UNL1        0.0310
     15 C         138.1266  138.5240  162.5797 C.ar    1  UNL1       -0.0217
     16 C         138.4726  137.2853  163.3516 C.ar    1  UNL1       -0.0011
     17 C         139.3391  137.3798  164.5724 C.ar    1  UNL1        0.0371
     18 C         139.8597  138.7130  165.0212 C.ar    1  UNL1        0.1446
     19 O         140.7283  139.1142  166.1764 O.2     1  UNL1       -0.4560
     20 C         140.9192  140.6009  166.1185 C.ar    1  UNL1        0.1432
     21 C         140.1686  141.1185  164.9275 C.ar    1  UNL1        0.0134
     22 C         140.0870  142.5514  164.4912 C.3     1  UNL1        0.0340
     23 C         139.5138  139.9517  164.2493 C.ar    1  UNL1        0.0329
     24 C         138.6472  139.8572  163.0285 C.ar    1  UNL1       -0.0015
     25 C         143.5497  142.3888  165.3887 C.ar    1  UNL1        0.0699
     26 C         143.5441  143.7197  164.6968 C.ar    1  UNL1        0.0176
     27 C         144.1647  143.8615  163.3386 C.ar    1  UNL1        0.0160
     28 C         144.7909  142.6725  162.6723 C.ar    1  UNL1        0.0506
     29 C         144.7965  141.3416  163.3642 C.ar    1  UNL1        0.0160
     30 C         144.1760  141.1997  164.7224 C.ar    1  UNL1        0.0176
     31 N         145.4114  142.8143  161.3141 N.am    1  UNL1       -0.2804
     32 C         144.6197  142.4682  160.0879 C.2     1  UNL1        0.2494
     33 O         143.2075  141.9802  160.2200 O.2     1  UNL1       -0.2698
     34 H         146.3383  143.1346  161.2274 H       1  UNL1        0.1552
     35 C         145.2403  142.6100  158.7297 C.2     1  UNL1        0.0549
     36 C         144.4534  142.2504  157.5043 C.2     1  UNL1       -0.0041
     37 C         145.0740  142.3922  156.1461 C.3     1  UNL1        0.0991
     38 N         146.0408  141.3574  155.6515 N.3     1  UNL1       -0.2665
     39 C         147.4913  141.7032  155.4889 C.3     1  UNL1        0.0899
     40 C         145.5571  139.9769  155.3196 C.3     1  UNL1        0.0899
@<TRIPOS>BOND
     1    14    15    1
     2    15    16   ar
     3    16    17   ar
     4    17    18   ar
     5    18    19   ar
     6    19    20   ar
     7    20     1    1
     8     1     2    1
     9     2     3    2
    10     3     4    1
    11     3     5    1
    12     5     6    2
    13     6     7    1
    14     7     8    2
    15     7     9    1
    16     9    10    2
    17    10    11    1
    18    11    25    1
    19    25    26   ar
    20    26    27   ar
    21    27    28   ar
    22    28    31    1
    23    31    32   am
    24    32    33    2
    25    32    35    1
    26    35    36    2
    27    36    37    1
    28    37    38    1
    29    38    39    1
    30    38    40    1
    31    28    29   ar
    32    29    30   ar
    33    20    21   ar
    34    21    22    1
    35    21    23   ar
    36    23    24   ar
    37    24    15   ar
    38    23    18   ar
    39    11     1    1
    40    30    25   ar
    41     9     2    1
    42     4    12    1
    43     4    13    1
    44    31    34    1
@<TRIPOS>MOLECULE
*****
 40 44 0 0 0
SMALL
GASTEIGER

@<TRIPOS>ATOM
      1 C         141.0563  141.8674  166.6672 C.3     1  UNL1        0.1836
      2 C         141.0039  141.5400  168.1302 C.2     1  UNL1        0.1125
      3 C         141.5400  140.3828  168.9196 C.2     1  UNL1        0.3424
      4 N         142.2874  139.2832  168.2252 N.pl3   1  UNL1       -0.2446
      5 N         141.3288  140.3252  170.4035 N.2     1  UNL1        0.0722
      6 N         140.5814  141.4248  171.0980 N.am    1  UNL1        0.0405
      7 C         140.0452  142.5820  170.3085 C.2     1  UNL1        0.3289
      8 O         139.2979  143.6816  171.0030 O.2     1  UNL1       -0.2626
      9 C         140.2564  142.6397  168.8246 C.2     1  UNL1        0.1626
     10 N         139.8470  143.6466  167.7909 N.2     1  UNL1       -0.1725
     11 N         140.3414  143.1692  166.4575 N.pl3   1  UNL1       -0.2013
     12 H         142.4261  139.3210  167.2512 H       1  UNL1        0.2885
     13 H         142.6393  138.5236  168.7434 H       1  UNL1        0.2885
     14 C         143.0712  137.3669  160.5591 C.3     1  UNL1        0.0310
     15 C         143.1752  138.2058  161.7982 C.ar    1  UNL1       -0.0217
     16 C         144.5140  138.4477  162.4300 C.ar    1  UNL1       -0.0011
     17 C         144.6180  139.2866  163.6691 C.ar    1  UNL1        0.0371
     18 C         143.3832  139.8836  164.2765 C.ar    1  UNL1        0.1446
     19 O         143.1760  140.7467  165.4856 O.2     1  UNL1       -0.4560
     20 C         141.7092  141.0383  165.6011 C.ar    1  UNL1        0.1432
     21 C         141.0098  140.3554  164.4634 C.ar    1  UNL1        0.0134
     22 C         139.5348  140.3815  164.1920 C.3     1  UNL1        0.0340
     23 C         142.0445  139.6417  163.6447 C.ar    1  UNL1        0.0329
     24 C         141.9405  138.8028  162.4056 C.ar    1  UNL1       -0.0015
     25 C         140.1538  143.8706  165.1450 C.ar    1  UNL1        0.0699
     26 C         141.3405  144.4271  164.4156 C.ar    1  UNL1        0.0176
     27 C         141.1529  145.1285  163.1030 C.ar    1  UNL1        0.0160
     28 C         139.7785  145.2734  162.5199 C.ar    1  UNL1        0.0506
     29 C         138.5918  144.7170  163.2493 C.ar    1  UNL1        0.0160
     30 C         138.7793  144.0156  164.5618 C.ar    1  UNL1        0.0176
     31 N         139.5909  145.9749  161.2073 N.am    1  UNL1       -0.2804
     32 C         140.1955  145.4042  159.9588 C.2     1  UNL1        0.2494
     33 O         140.9878  144.1321  160.0228 O.2     1  UNL1       -0.2698
     34 H         139.0709  146.8098  161.1653 H       1  UNL1        0.1552
     35 C         140.0079  146.1056  158.6463 C.2     1  UNL1        0.0549
     36 C         140.8036  145.6801  157.4480 C.2     1  UNL1       -0.0041
     37 C         140.6159  146.3815  156.1354 C.3     1  UNL1        0.0991
     38 N         139.2405  146.7779  155.6868 N.3     1  UNL1       -0.2665
     39 C         138.2675  145.7292  155.2358 C.3     1  UNL1        0.0899
     40 C         138.8381  148.2229  155.6893 C.3     1  UNL1        0.0899
@<TRIPOS>BOND
     1    14    15    1
     2    15    16   ar
     3    16    17   ar
     4    17    18   ar
     5    18    19   ar
     6    19    20   ar
     7    20     1    1
     8     1     2    1
     9     2     3    2
    10     3     4    1
    11     3     5    1
    12     5     6    2
    13     6     7    1
    14     7     8    2
    15     7     9    1
    16     9    10    2
    17    10    11    1
    18    11    25    1
    19    25    26   ar
    20    26    27   ar
    21    27    28   ar
    22    28    31    1
    23    31    32   am
    24    32    33    2
    25    32    35    1
    26    35    36    2
    27    36    37    1
    28    37    38    1
    29    38    39    1
    30    38    40    1
    31    28    29   ar
    32    29    30   ar
    33    20    21   ar
    34    21    22    1
    35    21    23   ar
    36    23    24   ar
    37    24    15   ar
    38    23    18   ar
    39    11     1    1
    40    30    25   ar
    41     9     2    1
    42     4    12    1
    43     4    13    1
    44    31    34    1
@<TRIPOS>MOLECULE
*****
 40 44 0 0 0
SMALL
GASTEIGER

@<TRIPOS>ATOM
      1 C         139.5460  140.1537  166.6379 C.3     1  UNL1        0.1836
      2 C         139.1002  140.0774  168.0681 C.2     1  UNL1        0.1125
      3 C         139.5449  140.8108  169.2986 C.2     1  UNL1        0.3424
      4 N         140.6339  141.8384  169.2068 N.pl3   1  UNL1       -0.2446
      5 N         138.9008  140.5168  170.6209 N.2     1  UNL1        0.0722
      6 N         137.8119  139.4893  170.7127 N.am    1  UNL1        0.0405
      7 C         137.3671  138.7558  169.4822 C.2     1  UNL1        0.3289
      8 O         136.2781  137.7283  169.5740 O.2     1  UNL1       -0.2626
      9 C         138.0112  139.0499  168.1599 C.2     1  UNL1        0.1626
     10 N         137.7841  138.4912  166.7865 N.2     1  UNL1       -0.1725
     11 N         138.7328  139.1734  165.8458 N.pl3   1  UNL1       -0.2013
     12 H         141.0567  142.0314  168.3389 H       1  UNL1        0.2885
     13 H         140.9259  142.3197  170.0145 H       1  UNL1        0.2885
     14 C         144.0017  145.6288  163.2038 C.3     1  UNL1        0.0310
     15 C         143.5976  144.4214  163.9968 C.ar    1  UNL1       -0.0217
     16 C         144.6448  143.5634  164.6426 C.ar    1  UNL1       -0.0011
     17 C         144.2406  142.3560  165.4356 C.ar    1  UNL1        0.0371
     18 C         142.7894  142.0066  165.5828 C.ar    1  UNL1        0.1446
     19 O         142.0942  140.8867  166.2986 O.2     1  UNL1       -0.4560
     20 C         140.6173  141.0525  166.0951 C.ar    1  UNL1        0.1432
     21 C         140.3997  142.2750  165.2535 C.ar    1  UNL1        0.0134
     22 C         139.0728  142.8133  164.8070 C.3     1  UNL1        0.0340
     23 C         141.7422  142.8646  164.9369 C.ar    1  UNL1        0.0329
     24 C         142.1463  144.0721  164.1439 C.ar    1  UNL1       -0.0015
     25 C         138.8479  138.9197  164.3719 C.ar    1  UNL1        0.0699
     26 C         139.8338  137.9123  163.8590 C.ar    1  UNL1        0.0176
     27 C         139.9489  137.6587  162.3851 C.ar    1  UNL1        0.0160
     28 C         139.0780  138.4124  161.4241 C.ar    1  UNL1        0.0506
     29 C         138.0921  139.4198  161.9371 C.ar    1  UNL1        0.0160
     30 C         137.9770  139.6735  163.4109 C.ar    1  UNL1        0.0176
     31 N         139.1931  138.1588  159.9502 N.am    1  UNL1       -0.2804
     32 C         140.3200  138.7681  159.1700 C.2     1  UNL1        0.2494
     33 O         141.3320  139.6310  159.8638 O.2     1  UNL1       -0.2698
     34 H         138.5289  137.5924  159.4949 H       1  UNL1        0.1552
     35 C         140.4351  138.5144  157.6961 C.2     1  UNL1        0.0549
     36 C         141.4504  137.5382  157.1801 C.2     1  UNL1       -0.0041
     37 C         141.5654  137.2846  155.7062 C.3     1  UNL1        0.0991
     38 N         142.6709  136.4190  155.1783 N.3     1  UNL1       -0.2665
     39 C         142.3675  135.3394  154.1820 C.3     1  UNL1        0.0899
     40 C         144.0798  136.6329  155.6465 C.3     1  UNL1        0.0899
@<TRIPOS>BOND
     1    14    15    1
     2    15    16   ar
     3    16    17   ar
     4    17    18   ar
     5    18    19   ar
     6    19    20   ar
     7    20     1    1
     8     1     2    1
     9     2     3    2
    10     3     4    1
    11     3     5    1
    12     5     6    2
    13     6     7    1
    14     7     8    2
    15     7     9    1
    16     9    10    2
    17    10    11    1
    18    11    25    1
    19    25    26   ar
    20    26    27   ar
    21    27    28   ar
    22    28    31    1
    23    31    32   am
    24    32    33    2
    25    32    35    1
    26    35    36    2
    27    36    37    1
    28    37    38    1
    29    38    39    1
    30    38    40    1
    31    28    29   ar
    32    29    30   ar
    33    20    21   ar
    34    21    22    1
    35    21    23   ar
    36    23    24   ar
    37    24    15   ar
    38    23    18   ar
    39    11     1    1
    40    30    25   ar
    41     9     2    1
    42     4    12    1
    43     4    13    1
    44    31    34    1
@<TRIPOS>MOLECULE
*****
 40 44 0 0 0
SMALL
GASTEIGER

@<TRIPOS>ATOM
      1 C         139.4592  140.1976  166.6399 C.3     1  UNL1        0.1836
      2 C         139.1232  140.0654  168.0959 C.2     1  UNL1        0.1125
      3 C         139.7301  140.6737  169.3253 C.2     1  UNL1        0.3424
      4 N         140.8985  141.6064  169.2022 N.pl3   1  UNL1       -0.2446
      5 N         139.1687  140.3493  170.6779 N.2     1  UNL1        0.0722
      6 N         138.0004  139.4167  170.8011 N.am    1  UNL1        0.0405
      7 C         137.3935  138.8083  169.5716 C.2     1  UNL1        0.3289
      8 O         136.2251  137.8757  169.6948 O.2     1  UNL1       -0.2626
      9 C         137.9548  139.1327  168.2190 C.2     1  UNL1        0.1626
     10 N         137.5689  138.6886  166.8392 N.2     1  UNL1       -0.1725
     11 N         138.4987  139.3468  165.8633 N.pl3   1  UNL1       -0.2013
     12 H         141.2670  141.8193  168.3144 H       1  UNL1        0.2885
     13 H         141.2968  142.0056  170.0091 H       1  UNL1        0.2885
     14 C         144.1182  145.5078  163.2166 C.3     1  UNL1        0.0310
     15 C         143.6666  144.2765  163.9446 C.ar    1  UNL1       -0.0217
     16 C         144.6738  143.2625  164.3997 C.ar    1  UNL1       -0.0011
     17 C         144.2222  142.0312  165.1277 C.ar    1  UNL1        0.0371
     18 C         142.7633  141.8139  165.4005 C.ar    1  UNL1        0.1446
     19 O         142.0255  140.7052  166.0907 O.2     1  UNL1       -0.4560
     20 C         140.5623  141.0340  166.0621 C.ar    1  UNL1        0.1432
     21 C         140.3957  142.3459  165.3543 C.ar    1  UNL1        0.0134
     22 C         139.0969  143.0519  165.0999 C.3     1  UNL1        0.0340
     23 C         141.7561  142.8280  164.9454 C.ar    1  UNL1        0.0329
     24 C         142.2077  144.0593  164.2174 C.ar    1  UNL1       -0.0015
     25 C         138.4724  139.1829  164.3725 C.ar    1  UNL1        0.0699
     26 C         137.7819  140.2040  163.5177 C.ar    1  UNL1        0.0176
     27 C         137.7556  140.0400  162.0270 C.ar    1  UNL1        0.0160
     28 C         138.4198  138.8550  161.3910 C.ar    1  UNL1        0.0506
     29 C         139.1103  137.8339  162.2457 C.ar    1  UNL1        0.0160
     30 C         139.1366  137.9978  163.7365 C.ar    1  UNL1        0.0176
     31 N         138.3936  138.6910  159.9002 N.am    1  UNL1       -0.2804
     32 C         139.6263  138.9716  159.0930 C.2     1  UNL1        0.2494
     33 O         140.8854  139.4161  159.7765 O.2     1  UNL1       -0.2698
     34 H         137.5672  138.3993  159.4516 H       1  UNL1        0.1552
     35 C         139.6000  138.8076  157.6022 C.2     1  UNL1        0.0549
     36 C         138.8515  139.7914  156.7525 C.2     1  UNL1       -0.0041
     37 C         138.8252  139.6275  155.2618 C.3     1  UNL1        0.0991
     38 N         137.5249  139.3751  154.5579 N.3     1  UNL1       -0.2665
     39 C         137.1189  137.9729  154.2126 C.3     1  UNL1        0.0899
     40 C         136.6306  140.5247  154.1993 C.3     1  UNL1        0.0899
@<TRIPOS>BOND
     1    14    15    1
     2    15    16   ar
     3    16    17   ar
     4    17    18   ar
     5    18    19   ar
     6    19    20   ar
     7    20     1    1
     8     1     2    1
     9     2     3    2
    10     3     4    1
    11     3     5    1
    12     5     6    2
    13     6     7    1
    14     7     8    2
    15     7     9    1
    16     9    10    2
    17    10    11    1
    18    11    25    1
    19    25    26   ar
    20    26    27   ar
    21    27    28   ar
    22    28    31    1
    23    31    32   am
    24    32    33    2
    25    32    35    1
    26    35    36    2
    27    36    37    1
    28    37    38    1
    29    38    39    1
    30    38    40    1
    31    28    29   ar
    32    29    30   ar
    33    20    21   ar
    34    21    22    1
    35    21    23   ar
    36    23    24   ar
    37    24    15   ar
    38    23    18   ar
    39    11     1    1
    40    30    25   ar
    41     9     2    1
    42     4    12    1
    43     4    13    1
    44    31    34    1
@<TRIPOS>MOLECULE
*****
 40 44 0 0 0
SMALL
GASTEIGER

@<TRIPOS>ATOM
      1 C         139.6641  139.9851  166.9946 C.3     1  UNL1        0.1836
      2 C         139.3985  139.8408  168.4639 C.2     1  UNL1        0.1125
      3 C         140.2042  140.2184  169.6714 C.2     1  UNL1        0.3424
      4 N         141.5451  140.8699  169.5047 N.pl3   1  UNL1       -0.2446
      5 N         139.6691  139.9446  171.0457 N.2     1  UNL1        0.0722
      6 N         138.3283  139.2931  171.2124 N.am    1  UNL1        0.0405
      7 C         137.5226  138.9154  170.0049 C.2     1  UNL1        0.3289
      8 O         136.1818  138.2640  170.1717 O.2     1  UNL1       -0.2626
      9 C         138.0576  139.1893  168.6306 C.2     1  UNL1        0.1626
     10 N         137.4947  138.9310  167.2645 N.2     1  UNL1       -0.1725
     11 N         138.4876  139.4229  166.2533 N.pl3   1  UNL1       -0.2013
     12 H         141.8963  141.0496  168.6027 H       1  UNL1        0.2885
     13 H         142.0739  141.1177  170.2972 H       1  UNL1        0.2885
     14 C         146.3665  141.7231  163.2958 C.3     1  UNL1        0.0310
     15 C         145.1040  141.8775  164.0910 C.ar    1  UNL1       -0.0217
     16 C         144.7040  143.2272  164.6088 C.ar    1  UNL1       -0.0011
     17 C         143.4415  143.3815  165.4040 C.ar    1  UNL1        0.0371
     18 C         142.5790  142.1861  165.6814 C.ar    1  UNL1        0.1446
     19 O         141.2886  142.0315  166.4303 O.2     1  UNL1       -0.4560
     20 C         140.8910  140.5862  166.3754 C.ar    1  UNL1        0.1432
     21 C         141.9357  139.8475  165.5925 C.ar    1  UNL1        0.0134
     22 C         141.9370  138.3781  165.2913 C.3     1  UNL1        0.0340
     23 C         142.9790  140.8364  165.1636 C.ar    1  UNL1        0.0329
     24 C         144.2415  140.6820  164.3684 C.ar    1  UNL1       -0.0015
     25 C         138.3314  139.3629  164.7627 C.ar    1  UNL1        0.0699
     26 C         138.6704  138.1028  164.0231 C.ar    1  UNL1        0.0176
     27 C         138.5142  138.0429  162.5325 C.ar    1  UNL1        0.0160
     28 C         138.0188  139.2431  161.7815 C.ar    1  UNL1        0.0506
     29 C         137.6797  140.5032  162.5211 C.ar    1  UNL1        0.0160
     30 C         137.8359  140.5632  164.0117 C.ar    1  UNL1        0.0176
     31 N         137.8625  139.1832  160.2909 N.am    1  UNL1       -0.2804
     32 C         138.8062  139.9432  159.4066 C.2     1  UNL1        0.2494
     33 O         139.9061  140.7632  160.0130 O.2     1  UNL1       -0.2698
     34 H         137.1406  138.6450  159.8928 H       1  UNL1        0.1552
     35 C         138.6499  139.8833  157.9160 C.2     1  UNL1        0.0549
     36 C         137.6049  140.7183  157.2373 C.2     1  UNL1       -0.0041
     37 C         137.4486  140.6584  155.7467 C.3     1  UNL1        0.0991
     38 N         136.3132  139.8868  155.1421 N.3     1  UNL1       -0.2665
     39 C         134.9173  140.0805  155.6556 C.3     1  UNL1        0.0899
     40 C         136.5737  138.9214  154.0240 C.3     1  UNL1        0.0899
@<TRIPOS>BOND
     1    14    15    1
     2    15    16   ar
     3    16    17   ar
     4    17    18   ar
     5    18    19   ar
     6    19    20   ar
     7    20     1    1
     8     1     2    1
     9     2     3    2
    10     3     4    1
    11     3     5    1
    12     5     6    2
    13     6     7    1
    14     7     8    2
    15     7     9    1
    16     9    10    2
    17    10    11    1
    18    11    25    1
    19    25    26   ar
    20    26    27   ar
    21    27    28   ar
    22    28    31    1
    23    31    32   am
    24    32    33    2
    25    32    35    1
    26    35    36    2
    27    36    37    1
    28    37    38    1
    29    38    39    1
    30    38    40    1
    31    28    29   ar
    32    29    30   ar
    33    20    21   ar
    34    21    22    1
    35    21    23   ar
    36    23    24   ar
    37    24    15   ar
    38    23    18   ar
    39    11     1    1
    40    30    25   ar
    41     9     2    1
    42     4    12    1
    43     4    13    1
    44    31    34    1
@<TRIPOS>MOLECULE
*****
 40 44 0 0 0
SMALL
GASTEIGER

@<TRIPOS>ATOM
      1 C         140.4508  140.4074  166.7290 C.3     1  UNL1        0.1836
      2 C         140.4925  140.3860  168.2283 C.2     1  UNL1        0.1125
      3 C         141.5920  140.6768  169.2061 C.2     1  UNL1        0.3424
      4 N         142.9510  141.0739  168.7104 N.pl3   1  UNL1       -0.2446
      5 N         141.3328  140.5705  170.6797 N.2     1  UNL1        0.0722
      6 N         139.9740  140.1734  171.1755 N.am    1  UNL1        0.0405
      7 C         138.8743  139.8826  170.1976 C.2     1  UNL1        0.3289
      8 O         137.5154  139.4854  170.6934 O.2     1  UNL1       -0.2626
      9 C         139.1335  139.9889  168.7240 C.2     1  UNL1        0.1626
     10 N         138.2522  139.7649  167.5312 N.2     1  UNL1       -0.1725
     11 N         139.0664  140.0235  166.2981 N.pl3   1  UNL1       -0.2013
     12 H         143.1212  141.1437  167.7433 H       1  UNL1        0.2885
     13 H         143.6727  141.2648  169.3523 H       1  UNL1        0.2885
     14 C         145.5061  143.2853  161.4579 C.3     1  UNL1        0.0310
     15 C         144.9234  142.4333  162.5462 C.ar    1  UNL1       -0.0217
     16 C         145.7367  141.3262  163.1486 C.ar    1  UNL1       -0.0011
     17 C         145.1540  140.4742  164.2369 C.ar    1  UNL1        0.0371
     18 C         143.7580  140.7291  164.7228 C.ar    1  UNL1        0.1446
     19 O         142.9228  140.0592  165.7733 O.2     1  UNL1       -0.4560
     20 C         141.5933  140.7522  165.8201 C.ar    1  UNL1        0.1432
     21 C         141.6068  141.8504  164.7986 C.ar    1  UNL1        0.0134
     22 C         140.4803  142.7967  164.5064 C.3     1  UNL1        0.0340
     23 C         142.9447  141.8361  164.1204 C.ar    1  UNL1        0.0329
     24 C         143.5274  142.6882  163.0320 C.ar    1  UNL1       -0.0015
     25 C         138.5812  139.9170  164.8828 C.ar    1  UNL1        0.0699
     26 C         137.7988  141.0414  164.2715 C.ar    1  UNL1        0.0176
     27 C         137.3136  140.9349  162.8561 C.ar    1  UNL1        0.0160
     28 C         137.6107  139.7040  162.0521 C.ar    1  UNL1        0.0506
     29 C         138.3931  138.5796  162.6634 C.ar    1  UNL1        0.0160
     30 C         138.8783  138.6860  164.0786 C.ar    1  UNL1        0.0176
     31 N         137.1255  139.5975  160.6367 N.am    1  UNL1       -0.2804
     32 C         137.8295  140.3463  159.5442 C.2     1  UNL1        0.2494
     33 O         139.0187  141.2016  159.8670 O.2     1  UNL1       -0.2698
     34 H         136.3450  139.0361  160.4249 H       1  UNL1        0.1552
     35 C         137.3443  140.2398  158.1288 C.2     1  UNL1        0.0549
     36 C         137.2990  141.4600  157.2577 C.2     1  UNL1       -0.0041
     37 C         136.8138  141.3535  155.8423 C.3     1  UNL1        0.0991
     38 N         135.7262  140.3811  155.4936 N.3     1  UNL1       -0.2665
     39 C         134.3633  140.5303  156.1021 C.3     1  UNL1        0.0899
     40 C         136.0014  139.2595  154.5363 C.3     1  UNL1        0.0899
@<TRIPOS>BOND
     1    14    15    1
     2    15    16   ar
     3    16    17   ar
     4    17    18   ar
     5    18    19   ar
     6    19    20   ar
     7    20     1    1
     8     1     2    1
     9     2     3    2
    10     3     4    1
    11     3     5    1
    12     5     6    2
    13     6     7    1
    14     7     8    2
    15     7     9    1
    16     9    10    2
    17    10    11    1
    18    11    25    1
    19    25    26   ar
    20    26    27   ar
    21    27    28   ar
    22    28    31    1
    23    31    32   am
    24    32    33    2
    25    32    35    1
    26    35    36    2
    27    36    37    1
    28    37    38    1
    29    38    39    1
    30    38    40    1
    31    28    29   ar
    32    29    30   ar
    33    20    21   ar
    34    21    22    1
    35    21    23   ar
    36    23    24   ar
    37    24    15   ar
    38    23    18   ar
    39    11     1    1
    40    30    25   ar
    41     9     2    1
    42     4    12    1
    43     4    13    1
    44    31    34    1
@<TRIPOS>MOLECULE
*****
 40 44 0 0 0
SMALL
GASTEIGER

@<TRIPOS>ATOM
      1 C         140.2476  142.6629  161.9771 C.3     1  UNL1        0.1836
      2 C         139.8194  143.3523  163.2386 C.2     1  UNL1        0.1125
      3 C         139.1047  144.6485  163.4811 C.2     1  UNL1        0.3424
      4 N         138.6889  145.5042  162.3214 N.pl3   1  UNL1       -0.2446
      5 N         138.8057  145.0892  164.8834 N.2     1  UNL1        0.0722
      6 N         139.2214  144.2336  166.0432 N.am    1  UNL1        0.0405
      7 C         139.9362  142.9373  165.8007 C.2     1  UNL1        0.3289
      8 O         140.3519  142.0817  166.9604 O.2     1  UNL1       -0.2626
      9 C         140.2352  142.4966  164.3984 C.2     1  UNL1        0.1626
     10 N         140.9203  141.2785  163.8536 N.2     1  UNL1       -0.1725
     11 N         140.9280  141.3814  162.3571 N.pl3   1  UNL1       -0.2013
     12 H         138.8851  145.2151  161.4010 H       1  UNL1        0.2885
     13 H         138.2198  146.3550  162.4806 H       1  UNL1        0.2885
     14 C         138.2839  144.0602  154.5061 C.3     1  UNL1        0.0310
     15 C         138.9006  144.2194  155.8642 C.ar    1  UNL1       -0.0217
     16 C         139.7624  145.4105  156.1616 C.ar    1  UNL1       -0.0011
     17 C         140.3791  145.5697  157.5197 C.ar    1  UNL1        0.0371
     18 C         140.1340  144.5378  158.5803 C.ar    1  UNL1        0.1446
     19 O         140.6043  144.4266  160.0003 O.2     1  UNL1       -0.4560
     20 C         140.0331  143.1668  160.5806 C.ar    1  UNL1        0.1432
     21 C         139.2098  142.4994  159.5192 C.ar    1  UNL1        0.0134
     22 C         138.4563  141.2109  159.6678 C.3     1  UNL1        0.0340
     23 C         139.2721  143.3467  158.2829 C.ar    1  UNL1        0.0329
     24 C         138.6554  143.1875  156.9249 C.ar    1  UNL1       -0.0015
     25 C         141.5133  140.3785  161.4074 C.ar    1  UNL1        0.0699
     26 C         140.9975  138.9701  161.3922 C.ar    1  UNL1        0.0176
     27 C         141.5828  137.9673  160.4426 C.ar    1  UNL1        0.0160
     28 C         142.6838  138.3729  159.5082 C.ar    1  UNL1        0.0506
     29 C         143.1996  139.7814  159.5234 C.ar    1  UNL1        0.0160
     30 C         142.6144  140.7842  160.4730 C.ar    1  UNL1        0.0176
     31 N         143.2691  137.3701  158.5586 N.am    1  UNL1       -0.2804
     32 C         142.4636  136.8846  157.3901 C.2     1  UNL1        0.2494
     33 O         141.0727  137.4019  157.1712 O.2     1  UNL1       -0.2698
     34 H         144.1820  137.0306  158.7022 H       1  UNL1        0.1552
     35 C         143.0488  135.8818  156.4405 C.2     1  UNL1        0.0549
     36 C         143.2595  134.4641  156.8828 C.2     1  UNL1       -0.0041
     37 C         143.8448  133.4612  155.9331 C.3     1  UNL1        0.0991
     38 N         144.5515  132.2493  156.4640 N.3     1  UNL1       -0.2665
     39 C         144.6277  131.0021  155.6341 C.3     1  UNL1        0.0899
     40 C         145.1819  132.2844  157.8246 C.3     1  UNL1        0.0899
@<TRIPOS>BOND
     1    14    15    1
     2    15    16   ar
     3    16    17   ar
     4    17    18   ar
     5    18    19   ar
     6    19    20   ar
     7    20     1    1
     8     1     2    1
     9     2     3    2
    10     3     4    1
    11     3     5    1
    12     5     6    2
    13     6     7    1
    14     7     8    2
    15     7     9    1
    16     9    10    2
    17    10    11    1
    18    11    25    1
    19    25    26   ar
    20    26    27   ar
    21    27    28   ar
    22    28    31    1
    23    31    32   am
    24    32    33    2
    25    32    35    1
    26    35    36    2
    27    36    37    1
    28    37    38    1
    29    38    39    1
    30    38    40    1
    31    28    29   ar
    32    29    30   ar
    33    20    21   ar
    34    21    22    1
    35    21    23   ar
    36    23    24   ar
    37    24    15   ar
    38    23    18   ar
    39    11     1    1
    40    30    25   ar
    41     9     2    1
    42     4    12    1
    43     4    13    1
    44    31    34    1
@<TRIPOS>MOLECULE
*****
 40 44 0 0 0
SMALL
GASTEIGER

@<TRIPOS>ATOM
      1 C         141.6570  141.3611  158.9705 C.3     1  UNL1        0.1836
      2 C         141.7734  142.8566  158.9725 C.2     1  UNL1        0.1125
      3 C         141.6705  143.8699  160.0736 C.2     1  UNL1        0.3424
      4 N         141.4033  143.4240  161.4807 N.pl3   1  UNL1       -0.2446
      5 N         141.8349  145.3292  159.7678 N.2     1  UNL1        0.0722
      6 N         142.1022  145.7751  158.3608 N.am    1  UNL1        0.0405
      7 C         142.2050  144.7617  157.2596 C.2     1  UNL1        0.3289
      8 O         142.4723  145.2076  155.8526 O.2     1  UNL1       -0.2626
      9 C         142.0406  143.3025  157.5654 C.2     1  UNL1        0.1626
     10 N         142.0894  142.0826  156.6940 N.2     1  UNL1       -0.1725
     11 N         141.8523  140.8827  157.5625 N.pl3   1  UNL1       -0.2013
     12 H         141.2953  142.4663  161.6815 H       1  UNL1        0.2885
     13 H         141.3358  144.0892  162.2034 H       1  UNL1        0.2885
     14 C         138.8517  137.3239  165.0906 C.3     1  UNL1        0.0310
     15 C         139.8030  137.8695  164.0671 C.ar    1  UNL1       -0.0217
     16 C         141.2463  137.4619  164.0923 C.ar    1  UNL1       -0.0011
     17 C         142.1976  138.0075  163.0688 C.ar    1  UNL1        0.0371
     18 C         141.7055  138.9606  162.0203 C.ar    1  UNL1        0.1446
     19 O         142.4037  139.6576  160.8903 O.2     1  UNL1       -0.4560
     20 C         141.3918  140.4959  160.1668 C.ar    1  UNL1        0.1432
     21 C         140.0683  140.3170  160.8497 C.ar    1  UNL1        0.0134
     22 C         138.7775  140.9719  160.4561 C.3     1  UNL1        0.0340
     23 C         140.2622  139.3681  161.9952 C.ar    1  UNL1        0.0329
     24 C         139.3109  138.8225  163.0186 C.ar    1  UNL1       -0.0015
     25 C         141.8168  139.4552  157.1033 C.ar    1  UNL1        0.0699
     26 C         140.5394  138.6730  157.1838 C.ar    1  UNL1        0.0176
     27 C         140.5038  137.2455  156.7246 C.ar    1  UNL1        0.0160
     28 C         141.7457  136.6001  156.1850 C.ar    1  UNL1        0.0506
     29 C         143.0231  137.3823  156.1044 C.ar    1  UNL1        0.0160
     30 C         143.0587  138.8098  156.5636 C.ar    1  UNL1        0.0176
     31 N         141.7101  135.1726  155.7258 N.am    1  UNL1       -0.2804
     32 C         142.5128  134.1319  156.4489 C.2     1  UNL1        0.2494
     33 O         143.3510  134.5188  157.6311 O.2     1  UNL1       -0.2698
     34 H         141.1600  134.9186  154.9498 H       1  UNL1        0.1552
     35 C         142.4773  132.7044  155.9897 C.2     1  UNL1        0.0549
     36 C         143.0430  132.3328  154.6511 C.2     1  UNL1       -0.0041
     37 C         143.0075  130.9052  154.1919 C.3     1  UNL1        0.0991
     38 N         144.2251  130.0409  154.3349 N.3     1  UNL1       -0.2665
     39 C         144.8501  129.8430  155.6840 C.3     1  UNL1        0.0899
     40 C         144.8178  129.3746  153.1287 C.3     1  UNL1        0.0899
@<TRIPOS>BOND
     1    14    15    1
     2    15    16   ar
     3    16    17   ar
     4    17    18   ar
     5    18    19   ar
     6    19    20   ar
     7    20     1    1
     8     1     2    1
     9     2     3    2
    10     3     4    1
    11     3     5    1
    12     5     6    2
    13     6     7    1
    14     7     8    2
    15     7     9    1
    16     9    10    2
    17    10    11    1
    18    11    25    1
    19    25    26   ar
    20    26    27   ar
    21    27    28   ar
    22    28    31    1
    23    31    32   am
    24    32    33    2
    25    32    35    1
    26    35    36    2
    27    36    37    1
    28    37    38    1
    29    38    39    1
    30    38    40    1
    31    28    29   ar
    32    29    30   ar
    33    20    21   ar
    34    21    22    1
    35    21    23   ar
    36    23    24   ar
    37    24    15   ar
    38    23    18   ar
    39    11     1    1
    40    30    25   ar
    41     9     2    1
    42     4    12    1
    43     4    13    1
    44    31    34    1
