@<TRIPOS>MOLECULE
*****
 33 37 0 0 0
SMALL
GASTEIGER

@<TRIPOS>ATOM
      1 C         140.2294  143.9164  159.9022 C.3     1  UNL1        0.1700
      2 O         139.9672  145.3487  159.5418 O.3     1  UNL1       -0.3793
      3 H         139.0474  145.4453  159.2494 H       1  UNL1        0.2106
      4 C         139.1342  142.8990  159.7773 C.3     1  UNL1        0.2358
      5 O         137.9398  142.9679  160.6821 O.3     1  UNL1       -0.4716
      6 O         138.2933  137.8609  162.4267 O.2     1  UNL1       -0.2748
      7 C         138.3462  139.1977  163.1050 C.2     1  UNL1        0.2265
      8 C         138.5346  139.2779  164.5910 C.3     1  UNL1        0.0901
      9 C         138.5876  140.6147  165.2693 C.3     1  UNL1        0.0373
     10 C         138.4521  141.8714  164.4617 C.ar    1  UNL1       -0.0052
     11 C         138.5051  143.2082  165.1400 C.ar    1  UNL1       -0.0028
     12 C         138.3696  144.4649  164.3323 C.ar    1  UNL1        0.0029
     13 C         138.1812  144.3848  162.8463 C.ar    1  UNL1        0.0382
     14 C         138.1282  143.0480  162.1680 C.ar    1  UNL1        0.1517
     15 C         138.2637  141.7913  162.9757 C.ar    1  UNL1        0.0807
     16 N         138.2108  140.4544  162.2974 N.am    1  UNL1       -0.2818
     17 H         138.0871  140.4019  161.3221 H       1  UNL1        0.1549
     18 C         141.5868  143.5015  160.3874 C.3     1  UNL1        0.1056
     19 N         141.7622  143.0076  161.7928 N.3     1  UNL1       -0.2703
     20 C         141.9348  143.9868  162.9159 C.3     1  UNL1        0.0758
     21 C         142.1102  143.4928  164.3213 C.3     1  UNL1        0.0577
     22 C         142.1132  142.0196  164.6036 C.3     1  UNL1        0.1399
     23 C         141.9406  141.0404  163.4805 C.3     1  UNL1        0.0577
     24 C         141.7652  141.5344  162.0751 C.3     1  UNL1        0.0758
     25 C         142.1371  140.5837  165.0370 C.3     1  UNL1        0.0695
     26 C         142.3342  140.5515  166.5237 C.ar    1  UNL1        0.0161
     27 C         142.4372  139.4158  167.4981 C.ar    1  UNL1        0.0102
     28 C         142.6381  139.6959  168.9579 C.ar    1  UNL1        0.0576
     29 CL        142.7411  138.5602  169.9323 Cl      1  UNL1       -0.0823
     30 C         142.7361  141.1118  169.4434 C.ar    1  UNL1        0.0145
     31 C         142.6331  142.2476  168.4690 C.ar    1  UNL1        0.0374
     32 C         142.4321  141.9674  167.0091 C.ar    1  UNL1        0.1343
     33 O         142.2955  142.8747  165.8225 O.3     1  UNL1       -0.4825
@<TRIPOS>BOND
     1     6     7    2
     2     7     8    1
     3     8     9    1
     4     9    10    1
     5    10    11   ar
     6    11    12   ar
     7    12    13   ar
     8    13    14   ar
     9    14     5    1
    10     5     4    1
    11     4     1    1
    12     1     2    1
    13     1    18    1
    14    18    19    1
    15    19    20    1
    16    20    21    1
    17    21    22    1
    18    22    23    1
    19    23    24    1
    20    22    25    1
    21    25    26    1
    22    26    27   ar
    23    27    28   ar
    24    28    29    1
    25    28    30   ar
    26    30    31   ar
    27    31    32   ar
    28    32    33    1
    29    14    15   ar
    30    15    16    1
    31    16     7   am
    32    15    10   ar
    33    24    19    1
    34    32    26   ar
    35    33    22    1
    36     2     3    1
    37    16    17    1
@<TRIPOS>MOLECULE
*****
 33 37 0 0 0
SMALL
GASTEIGER

@<TRIPOS>ATOM
      1 C         140.8405  145.0599  160.8975 C.3     1  UNL1        0.1700
      2 O         141.9190  145.5794  159.9936 O.3     1  UNL1       -0.3793
      3 H         141.8583  145.1391  159.1315 H       1  UNL1        0.2106
      4 C         139.8847  144.0156  160.4014 C.3     1  UNL1        0.2358
      5 O         140.1359  142.5671  160.6989 O.3     1  UNL1       -0.4716
      6 O         143.6393  139.0261  162.8056 O.2     1  UNL1       -0.2748
      7 C         142.2266  139.4109  163.1316 C.2     1  UNL1        0.2265
      8 C         141.5109  138.7437  164.2684 C.3     1  UNL1        0.0901
      9 C         140.0982  139.1285  164.5944 C.3     1  UNL1        0.0373
     10 C         139.4013  140.1806  163.7836 C.ar    1  UNL1       -0.0052
     11 C         137.9886  140.5654  164.1096 C.ar    1  UNL1       -0.0028
     12 C         137.2917  141.6174  163.2987 C.ar    1  UNL1        0.0029
     13 C         138.0075  142.2847  162.1618 C.ar    1  UNL1        0.0382
     14 C         139.4202  141.8999  161.8358 C.ar    1  UNL1        0.1517
     15 C         140.1171  140.8478  162.6467 C.ar    1  UNL1        0.0807
     16 N         141.5297  140.4630  162.3207 N.am    1  UNL1       -0.2818
     17 H         141.9995  140.9009  161.5745 H       1  UNL1        0.1549
     18 C         140.7177  145.5847  162.2973 C.3     1  UNL1        0.1056
     19 N         140.8156  144.6445  163.4620 N.3     1  UNL1       -0.2703
     20 C         139.6677  144.5136  164.4187 C.3     1  UNL1        0.0758
     21 C         139.7656  143.5735  165.5834 C.3     1  UNL1        0.0577
     22 C         141.0113  142.7642  165.7913 C.3     1  UNL1        0.1399
     23 C         142.1592  142.8950  164.8346 C.3     1  UNL1        0.0577
     24 C         142.0613  143.8352  163.6700 C.3     1  UNL1        0.0758
     25 C         142.1869  141.8947  166.1262 C.3     1  UNL1        0.0695
     26 C         141.8529  141.1215  167.3675 C.ar    1  UNL1        0.0161
     27 C         142.6286  140.1115  168.1600 C.ar    1  UNL1        0.0102
     28 C         142.0224  139.4931  169.3848 C.ar    1  UNL1        0.0576
     29 CL        142.7981  138.4831  170.1773 Cl      1  UNL1       -0.0823
     30 C         140.6405  139.8848  169.8171 C.ar    1  UNL1        0.0145
     31 C         139.8647  140.8948  169.0246 C.ar    1  UNL1        0.0374
     32 C         140.4709  141.5132  167.7998 C.ar    1  UNL1        0.1343
     33 O         139.9508  142.5284  166.8257 O.3     1  UNL1       -0.4825
@<TRIPOS>BOND
     1     6     7    2
     2     7     8    1
     3     8     9    1
     4     9    10    1
     5    10    11   ar
     6    11    12   ar
     7    12    13   ar
     8    13    14   ar
     9    14     5    1
    10     5     4    1
    11     4     1    1
    12     1     2    1
    13     1    18    1
    14    18    19    1
    15    19    20    1
    16    20    21    1
    17    21    22    1
    18    22    23    1
    19    23    24    1
    20    22    25    1
    21    25    26    1
    22    26    27   ar
    23    27    28   ar
    24    28    29    1
    25    28    30   ar
    26    30    31   ar
    27    31    32   ar
    28    32    33    1
    29    14    15   ar
    30    15    16    1
    31    16     7   am
    32    15    10   ar
    33    24    19    1
    34    32    26   ar
    35    33    22    1
    36     2     3    1
    37    16    17    1
@<TRIPOS>MOLECULE
*****
 33 37 0 0 0
SMALL
GASTEIGER

@<TRIPOS>ATOM
      1 C         142.5280  138.2583  161.0248 C.3     1  UNL1        0.1700
      2 O         143.0301  136.9774  160.4272 O.3     1  UNL1       -0.3793
      3 H         142.3434  136.5947  159.8590 H       1  UNL1        0.2106
      4 C         141.1477  138.7473  160.6995 C.3     1  UNL1        0.2358
      5 O         139.9510  138.0647  161.2926 O.3     1  UNL1       -0.4716
      6 O         138.1066  143.1123  160.6844 O.2     1  UNL1       -0.2748
      7 C         138.1830  142.1657  161.8455 C.2     1  UNL1        0.2265
      8 C         137.6700  142.5861  163.1909 C.3     1  UNL1        0.0901
      9 C         137.7464  141.6395  164.3520 C.3     1  UNL1        0.0373
     10 C         138.3357  140.2726  164.1677 C.ar    1  UNL1       -0.0052
     11 C         138.4121  139.3260  165.3288 C.ar    1  UNL1       -0.0028
     12 C         139.0014  137.9590  165.1445 C.ar    1  UNL1        0.0029
     13 C         139.5144  137.5385  163.7991 C.ar    1  UNL1        0.0382
     14 C         139.4381  138.4851  162.6380 C.ar    1  UNL1        0.1517
     15 C         138.8487  139.8522  162.8223 C.ar    1  UNL1        0.0807
     16 N         138.7723  140.7987  161.6612 N.am    1  UNL1       -0.2818
     17 H         139.1090  140.5228  160.7782 H       1  UNL1        0.1549
     18 C         143.4061  139.0502  161.9476 C.3     1  UNL1        0.1056
     19 N         142.9015  139.4523  163.3019 N.3     1  UNL1       -0.2703
     20 C         142.9715  138.4848  164.4460 C.3     1  UNL1        0.0758
     21 C         142.4669  138.8869  165.8001 C.3     1  UNL1        0.0577
     22 C         141.8923  140.2564  166.0101 C.3     1  UNL1        0.1399
     23 C         141.8223  141.2239  164.8660 C.3     1  UNL1        0.0577
     24 C         142.3269  140.8218  163.5119 C.3     1  UNL1        0.0758
     25 C         141.2946  141.5844  166.3697 C.3     1  UNL1        0.0695
     26 C         140.9296  141.5498  167.8243 C.ar    1  UNL1        0.0161
     27 C         140.3066  142.5727  168.7274 C.ar    1  UNL1        0.0102
     28 C         140.0556  142.2462  170.1697 C.ar    1  UNL1        0.0576
     29 CL        139.4326  143.2690  171.0728 Cl      1  UNL1       -0.0823
     30 C         140.4278  140.8970  170.7091 C.ar    1  UNL1        0.0145
     31 C         141.0509  139.8740  169.8060 C.ar    1  UNL1        0.0374
     32 C         141.3018  140.2005  168.3636 C.ar    1  UNL1        0.1343
     33 O         141.8968  139.4011  167.2424 O.3     1  UNL1       -0.4825
@<TRIPOS>BOND
     1     6     7    2
     2     7     8    1
     3     8     9    1
     4     9    10    1
     5    10    11   ar
     6    11    12   ar
     7    12    13   ar
     8    13    14   ar
     9    14     5    1
    10     5     4    1
    11     4     1    1
    12     1     2    1
    13     1    18    1
    14    18    19    1
    15    19    20    1
    16    20    21    1
    17    21    22    1
    18    22    23    1
    19    23    24    1
    20    22    25    1
    21    25    26    1
    22    26    27   ar
    23    27    28   ar
    24    28    29    1
    25    28    30   ar
    26    30    31   ar
    27    31    32   ar
    28    32    33    1
    29    14    15   ar
    30    15    16    1
    31    16     7   am
    32    15    10   ar
    33    24    19    1
    34    32    26   ar
    35    33    22    1
    36     2     3    1
    37    16    17    1
@<TRIPOS>MOLECULE
*****
 33 37 0 0 0
SMALL
GASTEIGER

@<TRIPOS>ATOM
      1 C         141.6720  144.1024  160.0641 C.3     1  UNL1        0.1700
      2 O         141.7644  145.5632  159.7363 O.3     1  UNL1       -0.3793
      3 H         142.6304  145.7521  159.3423 H       1  UNL1        0.2106
      4 C         142.8277  143.1929  159.7687 C.3     1  UNL1        0.2358
      5 O         144.1014  143.3204  160.5506 O.3     1  UNL1       -0.4716
      6 O         144.0367  138.0633  161.8188 O.2     1  UNL1       -0.2748
      7 C         144.0304  139.3279  162.6254 C.2     1  UNL1        0.2265
      8 C         144.0004  139.2617  164.1236 C.3     1  UNL1        0.0901
      9 C         143.9941  140.5264  164.9303 C.3     1  UNL1        0.0373
     10 C         144.0177  141.8572  164.2387 C.ar    1  UNL1       -0.0052
     11 C         144.0114  143.1218  165.0453 C.ar    1  UNL1       -0.0028
     12 C         144.0351  144.4526  164.3538 C.ar    1  UNL1        0.0029
     13 C         144.0651  144.5189  162.8555 C.ar    1  UNL1        0.0382
     14 C         144.0714  143.2542  162.0488 C.ar    1  UNL1        0.1517
     15 C         144.0477  141.9234  162.7405 C.ar    1  UNL1        0.0807
     16 N         144.0540  140.6587  161.9339 N.am    1  UNL1       -0.2818
     17 H         144.0737  140.7022  160.9505 H       1  UNL1        0.1549
     18 C         140.4240  143.5511  160.6872 C.3     1  UNL1        0.1056
     19 N         140.4275  143.1297  162.1269 N.3     1  UNL1       -0.2703
     20 C         140.4076  141.6725  162.4819 C.3     1  UNL1        0.0758
     21 C         140.4112  141.2513  163.9215 C.3     1  UNL1        0.0577
     22 C         140.4345  142.2872  165.0061 C.3     1  UNL1        0.1399
     23 C         140.4544  143.7444  164.6511 C.3     1  UNL1        0.0577
     24 C         140.4508  144.1657  163.2115 C.3     1  UNL1        0.0758
     25 C         140.4568  143.2041  166.1930 C.3     1  UNL1        0.0695
     26 C         140.4524  142.3586  167.4321 C.ar    1  UNL1        0.0161
     27 C         140.4680  142.7135  168.8894 C.ar    1  UNL1        0.0102
     28 C         140.4585  141.6289  169.9256 C.ar    1  UNL1        0.0576
     29 CL        140.4741  141.9837  171.3829 Cl      1  UNL1       -0.0823
     30 C         140.4336  140.1895  169.5044 C.ar    1  UNL1        0.0145
     31 C         140.4181  139.8346  168.0471 C.ar    1  UNL1        0.0374
     32 C         140.4275  140.9191  167.0109 C.ar    1  UNL1        0.1343
     33 O         140.4164  140.8750  165.5116 O.3     1  UNL1       -0.4825
@<TRIPOS>BOND
     1     6     7    2
     2     7     8    1
     3     8     9    1
     4     9    10    1
     5    10    11   ar
     6    11    12   ar
     7    12    13   ar
     8    13    14   ar
     9    14     5    1
    10     5     4    1
    11     4     1    1
    12     1     2    1
    13     1    18    1
    14    18    19    1
    15    19    20    1
    16    20    21    1
    17    21    22    1
    18    22    23    1
    19    23    24    1
    20    22    25    1
    21    25    26    1
    22    26    27   ar
    23    27    28   ar
    24    28    29    1
    25    28    30   ar
    26    30    31   ar
    27    31    32   ar
    28    32    33    1
    29    14    15   ar
    30    15    16    1
    31    16     7   am
    32    15    10   ar
    33    24    19    1
    34    32    26   ar
    35    33    22    1
    36     2     3    1
    37    16    17    1
@<TRIPOS>MOLECULE
*****
 33 37 0 0 0
SMALL
GASTEIGER

@<TRIPOS>ATOM
      1 C         139.2628  141.3187  159.6647 C.3     1  UNL1        0.1700
      2 O         140.2895  141.3581  158.5718 O.3     1  UNL1       -0.3793
      3 H         140.2953  142.2387  158.1652 H       1  UNL1        0.2106
      4 C         138.4433  142.5379  159.9681 C.3     1  UNL1        0.2358
      5 O         139.0679  143.7049  160.6737 O.3     1  UNL1       -0.4716
      6 O         144.1562  142.5960  162.1330 O.2     1  UNL1       -0.2748
      7 C         142.9007  142.9075  162.8925 C.2     1  UNL1        0.2265
      8 C         142.9229  142.9532  164.3916 C.3     1  UNL1        0.0901
      9 C         141.6675  143.2647  165.1511 C.3     1  UNL1        0.0373
     10 C         140.3899  143.5305  164.4116 C.ar    1  UNL1       -0.0052
     11 C         139.1344  143.8420  165.1711 C.ar    1  UNL1       -0.0028
     12 C         137.8568  144.1078  164.4315 C.ar    1  UNL1        0.0029
     13 C         137.8346  144.0621  162.9323 C.ar    1  UNL1        0.0382
     14 C         139.0901  143.7506  162.1728 C.ar    1  UNL1        0.1517
     15 C         140.3677  143.4848  162.9124 C.ar    1  UNL1        0.0807
     16 N         141.6231  143.1733  162.1529 N.am    1  UNL1       -0.2818
     17 H         141.6086  143.1433  161.1690 H       1  UNL1        0.1549
     18 C         139.0556  140.0601  160.4540 C.3     1  UNL1        0.1056
     19 N         139.4308  140.0150  161.9057 N.3     1  UNL1       -0.2703
     20 C         140.8468  139.7237  162.3057 C.3     1  UNL1        0.0758
     21 C         141.2219  139.6786  163.7573 C.3     1  UNL1        0.0577
     22 C         140.1810  139.9246  164.8089 C.3     1  UNL1        0.1399
     23 C         138.7650  140.2158  164.4090 C.3     1  UNL1        0.0577
     24 C         138.3899  140.2610  162.9574 C.3     1  UNL1        0.0758
     25 C         139.2539  140.1490  165.9666 C.3     1  UNL1        0.0695
     26 C         140.0491  140.0102  167.2310 C.ar    1  UNL1        0.0161
     27 C         139.6647  140.1261  168.6762 C.ar    1  UNL1        0.0102
     28 C         140.6989  139.9319  169.7452 C.ar    1  UNL1        0.0576
     29 CL        140.3145  140.0479  171.1905 Cl      1  UNL1       -0.0823
     30 C         142.1174  139.6217  169.3690 C.ar    1  UNL1        0.0145
     31 C         142.5018  139.5058  167.9237 C.ar    1  UNL1        0.0374
     32 C         141.4676  139.7000  166.8547 C.ar    1  UNL1        0.1343
     33 O         141.5492  139.6471  165.3578 O.3     1  UNL1       -0.4825
@<TRIPOS>BOND
     1     6     7    2
     2     7     8    1
     3     8     9    1
     4     9    10    1
     5    10    11   ar
     6    11    12   ar
     7    12    13   ar
     8    13    14   ar
     9    14     5    1
    10     5     4    1
    11     4     1    1
    12     1     2    1
    13     1    18    1
    14    18    19    1
    15    19    20    1
    16    20    21    1
    17    21    22    1
    18    22    23    1
    19    23    24    1
    20    22    25    1
    21    25    26    1
    22    26    27   ar
    23    27    28   ar
    24    28    29    1
    25    28    30   ar
    26    30    31   ar
    27    31    32   ar
    28    32    33    1
    29    14    15   ar
    30    15    16    1
    31    16     7   am
    32    15    10   ar
    33    24    19    1
    34    32    26   ar
    35    33    22    1
    36     2     3    1
    37    16    17    1
@<TRIPOS>MOLECULE
*****
 33 37 0 0 0
SMALL
GASTEIGER

@<TRIPOS>ATOM
      1 C         138.0409  140.3246  160.6279 C.3     1  UNL1        0.1700
      2 O         136.7120  139.6584  160.4275 O.3     1  UNL1       -0.3793
      3 H         136.8314  138.8492  159.9062 H       1  UNL1        0.2106
      4 C         139.2818  139.7121  160.0491 C.3     1  UNL1        0.2358
      5 O         139.8013  138.4142  160.5927 O.3     1  UNL1       -0.4716
      6 O         144.7025  140.2910  161.8986 O.2     1  UNL1       -0.2748
      7 C         143.5804  139.6784  162.6831 C.2     1  UNL1        0.2265
      8 C         143.7180  139.4871  164.1645 C.3     1  UNL1        0.0901
      9 C         142.5959  138.8744  164.9490 C.3     1  UNL1        0.0373
     10 C         141.3362  138.4530  164.2522 C.ar    1  UNL1       -0.0052
     11 C         140.2141  137.8404  165.0368 C.ar    1  UNL1       -0.0028
     12 C         138.9544  137.4190  164.3400 C.ar    1  UNL1        0.0029
     13 C         138.8168  137.6102  162.8586 C.ar    1  UNL1        0.0382
     14 C         139.9389  138.2229  162.0740 C.ar    1  UNL1        0.1517
     15 C         141.1986  138.6443  162.7709 C.ar    1  UNL1        0.0807
     16 N         142.3207  139.2570  161.9863 N.am    1  UNL1       -0.2818
     17 H         142.2304  139.3825  161.0141 H       1  UNL1        0.1549
     18 C         138.1289  141.6033  161.4072 C.3     1  UNL1        0.1056
     19 N         138.8474  141.6313  162.7237 N.3     1  UNL1       -0.2703
     20 C         140.2460  142.1673  162.8036 C.3     1  UNL1        0.0758
     21 C         140.9643  142.1953  164.1201 C.3     1  UNL1        0.0577
     22 C         140.2840  141.6874  165.3567 C.3     1  UNL1        0.1399
     23 C         138.8854  141.1514  165.2768 C.3     1  UNL1        0.0577
     24 C         138.1670  141.1234  163.9603 C.3     1  UNL1        0.0758
     25 C         139.7352  141.2163  166.6708 C.3     1  UNL1        0.0695
     26 C         140.7894  141.4292  167.7166 C.ar    1  UNL1        0.0161
     27 C         140.8113  141.1522  169.1906 C.ar    1  UNL1        0.0102
     28 C         142.0336  141.4778  169.9968 C.ar    1  UNL1        0.0576
     29 CL        142.0556  141.2008  171.4708 Cl      1  UNL1       -0.0823
     30 C         143.2339  142.0805  169.3290 C.ar    1  UNL1        0.0145
     31 C         143.2120  142.3576  167.8549 C.ar    1  UNL1        0.0374
     32 C         141.9897  142.0319  167.0487 C.ar    1  UNL1        0.1343
     33 O         141.6774  142.1915  165.5903 O.3     1  UNL1       -0.4825
@<TRIPOS>BOND
     1     6     7    2
     2     7     8    1
     3     8     9    1
     4     9    10    1
     5    10    11   ar
     6    11    12   ar
     7    12    13   ar
     8    13    14   ar
     9    14     5    1
    10     5     4    1
    11     4     1    1
    12     1     2    1
    13     1    18    1
    14    18    19    1
    15    19    20    1
    16    20    21    1
    17    21    22    1
    18    22    23    1
    19    23    24    1
    20    22    25    1
    21    25    26    1
    22    26    27   ar
    23    27    28   ar
    24    28    29    1
    25    28    30   ar
    26    30    31   ar
    27    31    32   ar
    28    32    33    1
    29    14    15   ar
    30    15    16    1
    31    16     7   am
    32    15    10   ar
    33    24    19    1
    34    32    26   ar
    35    33    22    1
    36     2     3    1
    37    16    17    1
@<TRIPOS>MOLECULE
*****
 33 37 0 0 0
SMALL
GASTEIGER

@<TRIPOS>ATOM
      1 C         143.8602  140.2619  159.9595 C.3     1  UNL1        0.1700
      2 O         143.2191  139.9560  158.6383 O.3     1  UNL1       -0.3793
      3 H         143.1699  140.7664  158.1075 H       1  UNL1        0.2106
      4 C         144.3070  141.6596  160.2706 C.3     1  UNL1        0.2358
      5 O         143.3391  142.6429  160.8591 O.3     1  UNL1       -0.4716
      6 O         138.1331  143.5333  162.0228 O.2     1  UNL1       -0.2748
      7 C         139.3837  143.4514  162.8469 C.2     1  UNL1        0.2265
      8 C         139.3160  143.6390  164.3335 C.3     1  UNL1        0.0901
      9 C         140.5666  143.5571  165.1576 C.3     1  UNL1        0.0373
     10 C         141.8851  143.2876  164.4950 C.ar    1  UNL1       -0.0052
     11 C         143.1358  143.2057  165.3191 C.ar    1  UNL1       -0.0028
     12 C         144.4542  142.9362  164.6565 C.ar    1  UNL1        0.0029
     13 C         144.5220  142.7486  163.1698 C.ar    1  UNL1        0.0382
     14 C         143.2713  142.8305  162.3457 C.ar    1  UNL1        0.1517
     15 C         141.9528  143.1000  163.0084 C.ar    1  UNL1        0.0807
     16 N         140.7022  143.1819  162.1843 N.am    1  UNL1       -0.2818
     17 H         140.7467  143.0588  161.2085 H       1  UNL1        0.1549
     18 C         144.0544  139.1701  160.9696 C.3     1  UNL1        0.1056
     19 N         143.4657  139.3052  162.3426 N.3     1  UNL1       -0.2703
     20 C         144.3538  139.2370  163.5495 C.3     1  UNL1        0.0758
     21 C         143.7650  139.3720  164.9225 C.3     1  UNL1        0.0577
     22 C         142.2882  139.5753  165.0886 C.3     1  UNL1        0.1399
     23 C         141.4001  139.6435  163.8817 C.3     1  UNL1        0.0577
     24 C         141.9888  139.5085  162.5087 C.3     1  UNL1        0.0758
     25 C         140.8375  139.7815  165.4094 C.3     1  UNL1        0.0695
     26 C         140.6995  139.8615  166.9010 C.ar    1  UNL1        0.0161
     27 C         139.5069  140.0569  167.7896 C.ar    1  UNL1        0.0102
     28 C         139.6798  140.0955  169.2791 C.ar    1  UNL1        0.0576
     29 CL        138.4872  140.2908  170.1677 Cl      1  UNL1       -0.0823
     30 C         141.0451  139.9387  169.8800 C.ar    1  UNL1        0.0145
     31 C         142.2378  139.7434  168.9914 C.ar    1  UNL1        0.0374
     32 C         142.0649  139.7048  167.5019 C.ar    1  UNL1        0.1343
     33 O         143.0468  139.5279  166.3818 O.3     1  UNL1       -0.4825
@<TRIPOS>BOND
     1     6     7    2
     2     7     8    1
     3     8     9    1
     4     9    10    1
     5    10    11   ar
     6    11    12   ar
     7    12    13   ar
     8    13    14   ar
     9    14     5    1
    10     5     4    1
    11     4     1    1
    12     1     2    1
    13     1    18    1
    14    18    19    1
    15    19    20    1
    16    20    21    1
    17    21    22    1
    18    22    23    1
    19    23    24    1
    20    22    25    1
    21    25    26    1
    22    26    27   ar
    23    27    28   ar
    24    28    29    1
    25    28    30   ar
    26    30    31   ar
    27    31    32   ar
    28    32    33    1
    29    14    15   ar
    30    15    16    1
    31    16     7   am
    32    15    10   ar
    33    24    19    1
    34    32    26   ar
    35    33    22    1
    36     2     3    1
    37    16    17    1
@<TRIPOS>MOLECULE
*****
 33 37 0 0 0
SMALL
GASTEIGER

@<TRIPOS>ATOM
      1 C         143.1413  138.7236  160.1643 C.3     1  UNL1        0.1700
      2 O         143.8559  139.3652  159.0120 O.3     1  UNL1       -0.3793
      3 H         143.2132  139.6064  158.3267 H       1  UNL1        0.2106
      4 C         141.6522  138.5490  160.1198 C.3     1  UNL1        0.2358
      5 O         140.7554  139.6101  160.6854 O.3     1  UNL1       -0.4716
      6 O         141.4545  144.1648  163.5168 O.2     1  UNL1       -0.2748
      7 C         140.7668  142.8614  163.7965 C.2     1  UNL1        0.2265
      8 C         140.0828  142.6417  165.1133 C.3     1  UNL1        0.0901
      9 C         139.3951  141.3384  165.3931 C.3     1  UNL1        0.0373
     10 C         139.3913  140.2546  164.3560 C.ar    1  UNL1       -0.0052
     11 C         138.7036  138.9513  164.6358 C.ar    1  UNL1       -0.0028
     12 C         138.6999  137.8675  163.5988 C.ar    1  UNL1        0.0029
     13 C         139.3838  138.0871  162.2819 C.ar    1  UNL1        0.0382
     14 C         140.0715  139.3905  162.0021 C.ar    1  UNL1        0.1517
     15 C         140.0753  140.4743  163.0393 C.ar    1  UNL1        0.0807
     16 N         140.7630  141.7776  162.7595 N.am    1  UNL1       -0.2818
     17 H         141.2119  141.9218  161.8952 H       1  UNL1        0.1549
     18 C         143.9159  138.2567  161.3609 C.3     1  UNL1        0.1056
     19 N         143.5937  138.7999  162.7215 N.3     1  UNL1       -0.2703
     20 C         144.0750  140.1642  163.1177 C.3     1  UNL1        0.0758
     21 C         143.7528  140.7073  164.4782 C.3     1  UNL1        0.0577
     22 C         142.9494  139.8861  165.4427 C.3     1  UNL1        0.1399
     23 C         142.4681  138.5218  165.0465 C.3     1  UNL1        0.0577
     24 C         142.7903  137.9787  163.6860 C.3     1  UNL1        0.0758
     25 C         142.1600  139.1845  166.5078 C.3     1  UNL1        0.0695
     26 C         142.0828  140.0911  167.7005 C.ar    1  UNL1        0.0161
     27 C         141.4329  139.9306  169.0429 C.ar    1  UNL1        0.0102
     28 C         141.5248  141.0319  170.0571 C.ar    1  UNL1        0.0576
     29 CL        140.8750  140.8714  171.3994 Cl      1  UNL1       -0.0823
     30 C         142.2665  142.2937  169.7290 C.ar    1  UNL1        0.0145
     31 C         142.9164  142.4542  168.3866 C.ar    1  UNL1        0.0374
     32 C         142.8245  141.3529  167.3724 C.ar    1  UNL1        0.1343
     33 O         143.3601  141.2263  165.9770 O.3     1  UNL1       -0.4825
@<TRIPOS>BOND
     1     6     7    2
     2     7     8    1
     3     8     9    1
     4     9    10    1
     5    10    11   ar
     6    11    12   ar
     7    12    13   ar
     8    13    14   ar
     9    14     5    1
    10     5     4    1
    11     4     1    1
    12     1     2    1
    13     1    18    1
    14    18    19    1
    15    19    20    1
    16    20    21    1
    17    21    22    1
    18    22    23    1
    19    23    24    1
    20    22    25    1
    21    25    26    1
    22    26    27   ar
    23    27    28   ar
    24    28    29    1
    25    28    30   ar
    26    30    31   ar
    27    31    32   ar
    28    32    33    1
    29    14    15   ar
    30    15    16    1
    31    16     7   am
    32    15    10   ar
    33    24    19    1
    34    32    26   ar
    35    33    22    1
    36     2     3    1
    37    16    17    1
@<TRIPOS>MOLECULE
*****
 33 37 0 0 0
SMALL
GASTEIGER

@<TRIPOS>ATOM
      1 C         137.7844  140.3216  161.2275 C.3     1  UNL1        0.1700
      2 O         136.8453  139.2168  160.8433 O.3     1  UNL1       -0.3793
      3 H         137.1925  138.7532  160.0653 H       1  UNL1        0.2106
      4 C         139.0348  140.5536  160.4320 C.3     1  UNL1        0.2358
      5 O         140.1283  139.5270  160.4373 O.3     1  UNL1       -0.4716
      6 O         144.0304  142.9998  161.8384 O.2     1  UNL1       -0.2748
      7 C         143.4701  141.7571  162.4643 C.2     1  UNL1        0.2265
      8 C         144.0237  141.2578  163.7659 C.3     1  UNL1        0.0901
      9 C         143.4635  140.0150  164.3918 C.3     1  UNL1        0.0373
     10 C         142.3496  139.2717  163.7161 C.ar    1  UNL1       -0.0052
     11 C         141.7893  138.0289  164.3420 C.ar    1  UNL1       -0.0028
     12 C         140.6754  137.2856  163.6663 C.ar    1  UNL1        0.0029
     13 C         140.1217  137.7849  162.3647 C.ar    1  UNL1        0.0382
     14 C         140.6820  139.0276  161.7388 C.ar    1  UNL1        0.1517
     15 C         141.7959  139.7710  162.4146 C.ar    1  UNL1        0.0807
     16 N         142.3562  141.0137  161.7887 N.am    1  UNL1       -0.2818
     17 H         141.9928  141.3415  160.9344 H       1  UNL1        0.1549
     18 C         137.4731  141.1943  162.4071 C.3     1  UNL1        0.1056
     19 N         138.3961  141.2146  163.5894 N.3     1  UNL1       -0.2703
     20 C         138.2886  140.1525  164.6431 C.3     1  UNL1        0.0758
     21 C         139.2115  140.1728  165.8253 C.3     1  UNL1        0.0577
     22 C         140.2419  141.2552  165.9539 C.3     1  UNL1        0.1399
     23 C         140.3494  142.3174  164.9002 C.3     1  UNL1        0.0577
     24 C         139.4265  142.2970  163.7179 C.3     1  UNL1        0.0758
     25 C         141.3160  142.2689  166.2167 C.3     1  UNL1        0.0695
     26 C         141.9908  141.9055  167.5062 C.ar    1  UNL1        0.0161
     27 C         143.1185  142.5422  168.2630 C.ar    1  UNL1        0.0102
     28 C         143.5893  141.9407  169.5539 C.ar    1  UNL1        0.0576
     29 CL        144.7171  142.5773  170.3107 Cl      1  UNL1       -0.0823
     30 C         142.9324  140.7025  170.0881 C.ar    1  UNL1        0.0145
     31 C         141.8046  140.0658  169.3313 C.ar    1  UNL1        0.0374
     32 C         141.3338  140.6673  168.0403 C.ar    1  UNL1        0.1343
     33 O         140.2530  140.2654  167.0810 O.3     1  UNL1       -0.4825
@<TRIPOS>BOND
     1     6     7    2
     2     7     8    1
     3     8     9    1
     4     9    10    1
     5    10    11   ar
     6    11    12   ar
     7    12    13   ar
     8    13    14   ar
     9    14     5    1
    10     5     4    1
    11     4     1    1
    12     1     2    1
    13     1    18    1
    14    18    19    1
    15    19    20    1
    16    20    21    1
    17    21    22    1
    18    22    23    1
    19    23    24    1
    20    22    25    1
    21    25    26    1
    22    26    27   ar
    23    27    28   ar
    24    28    29    1
    25    28    30   ar
    26    30    31   ar
    27    31    32   ar
    28    32    33    1
    29    14    15   ar
    30    15    16    1
    31    16     7   am
    32    15    10   ar
    33    24    19    1
    34    32    26   ar
    35    33    22    1
    36     2     3    1
    37    16    17    1
