@<TRIPOS>MOLECULE
*****
 36 39 0 0 0
SMALL
GASTEIGER

@<TRIPOS>ATOM
      1 C         141.1562  140.5168  162.9343 C.2     1  UNL1        0.1397
      2 C         141.7457  141.3027  161.8008 C.2     1  UNL1        0.1355
      3 N         140.9406  141.5467  160.5589 N.pl3   1  UNL1       -0.1998
      4 C         139.5462  141.0048  160.4504 C.2     1  UNL1        0.3442
      5 N         138.9568  140.2189  161.5839 N.2     1  UNL1       -0.0580
      6 C         139.7618  139.9749  162.8259 C.3     1  UNL1        0.2692
      7 H         141.3275  142.0625  159.8149 H       1  UNL1        0.2983
      8 C         139.1723  139.1889  163.9594 C.ar    1  UNL1        0.0371
      9 C         139.3402  137.6991  164.0062 C.ar    1  UNL1        0.0030
     10 C         138.7507  136.9131  165.1396 C.ar    1  UNL1        0.0295
     11 C         137.9934  137.6170  166.2264 C.ar    1  UNL1        0.1406
     12 F         137.4039  136.8310  167.3599 F       1  UNL1       -0.2042
     13 C         137.8255  139.1068  166.1796 C.ar    1  UNL1        0.0362
     14 C         138.4150  139.8928  165.0461 C.ar    1  UNL1        0.0372
     15 BR        138.2471  141.3826  164.9994 Br      1  UNL1       -0.0491
     16 C         138.7412  141.2488  159.2085 C.ar    1  UNL1        0.1931
     17 N         137.9306  140.2267  158.4682 N.ar    1  UNL1       -0.2297
     18 C         137.2938  140.9040  157.2910 C.ar    1  UNL1        0.1067
     19 C         137.7108  142.3448  157.3037 C.ar    1  UNL1        0.0577
     20 S         138.6054  142.5579  158.4888 S.2     1  UNL1       -0.0586
     21 C         141.9613  140.2727  164.1762 C.2     1  UNL1        0.3447
     22 O         142.9844  139.1762  164.2034 O.2     1  UNL1       -0.2450
     23 O         141.7432  141.1252  165.3910 O.3     1  UNL1       -0.4455
     24 C         140.7876  140.7434  167.7766 C.3     1  UNL1        0.0513
     25 C         141.8693  140.5260  166.7603 C.3     1  UNL1        0.2089
     26 C         143.1402  141.8446  161.9092 C.3     1  UNL1        0.1407
     27 N         143.4237  143.0112  162.8084 N.3     1  UNL1       -0.2578
     28 C         144.3420  143.0076  163.9944 C.3     1  UNL1        0.1401
     29 C         144.3245  144.3805  164.5985 C.3     1  UNL1        0.2801
     30 F         145.2923  143.7895  165.5803 F       1  UNL1       -0.2028
     31 F         144.5093  145.6298  165.4078 F       1  UNL1       -0.2028
     32 C         143.3953  145.2326  163.7857 C.3     1  UNL1        0.0897
     33 C         142.8386  144.3864  162.6794 C.3     1  UNL1        0.1003
     34 C         141.8673  144.8363  161.6287 C.2     1  UNL1        0.0650
     35 O         142.1452  144.5568  160.1814 O.co2   1  UNL1       -0.5478
     36 O         140.6180  145.5659  162.0251 O.co2   1  UNL1       -0.5478
@<TRIPOS>UNITY_ATOM_ATTR
35 1
charge -1
@<TRIPOS>BOND
     1    24    25    1
     2    25    23    1
     3    23    21    1
     4    21    22    2
     5    21     1    1
     6     1     2    2
     7     2    26    1
     8    26    27    1
     9    27    28    1
    10    28    29    1
    11    29    30    1
    12    29    31    1
    13    29    32    1
    14    32    33    1
    15    33    34    1
    16    34    35   ar
    17    34    36   ar
    18     2     3    1
    19     3     4    1
    20     4    16    1
    21    16    17   ar
    22    17    18   ar
    23    18    19   ar
    24    19    20   ar
    25     4     5    2
    26     5     6    1
    27     6     8    1
    28     8     9   ar
    29     9    10   ar
    30    10    11   ar
    31    11    12    1
    32    11    13   ar
    33    13    14   ar
    34    14    15    1
    35     6     1    1
    36    14     8   ar
    37    33    27    1
    38    20    16   ar
    39     3     7    1
@<TRIPOS>MOLECULE
*****
 36 39 0 0 0
SMALL
GASTEIGER

@<TRIPOS>ATOM
      1 C         139.2575  140.9888  162.5426 C.2     1  UNL1        0.1397
      2 C         139.9986  141.8476  161.5613 C.2     1  UNL1        0.1355
      3 N         141.4787  142.0446  161.7052 N.pl3   1  UNL1       -0.1998
      4 C         142.2175  141.3828  162.8303 C.2     1  UNL1        0.3442
      5 N         141.4763  140.5240  163.8116 N.2     1  UNL1       -0.0580
      6 C         139.9963  140.3269  163.6678 C.3     1  UNL1        0.2692
      7 H         141.9651  142.6083  161.0611 H       1  UNL1        0.2983
      8 C         139.2551  139.4680  164.6491 C.ar    1  UNL1        0.0371
      9 C         138.6337  140.0857  165.8667 C.ar    1  UNL1        0.0030
     10 C         137.8925  139.2269  166.8480 C.ar    1  UNL1        0.0295
     11 C         137.7728  137.7504  166.6119 C.ar    1  UNL1        0.1406
     12 F         137.0316  136.8916  167.5932 F       1  UNL1       -0.2042
     13 C         138.3942  137.1327  165.3944 C.ar    1  UNL1        0.0362
     14 C         139.1354  137.9916  164.4130 C.ar    1  UNL1        0.0372
     15 BR        139.7569  137.3740  163.1955 Br      1  UNL1       -0.0491
     16 C         143.6975  141.5798  162.9742 C.ar    1  UNL1        0.1931
     17 N         144.6141  142.1629  161.9398 N.ar    1  UNL1       -0.2297
     18 C         146.0039  142.1718  162.5041 C.ar    1  UNL1        0.1067
     19 C         145.9463  141.5942  163.8872 C.ar    1  UNL1        0.0577
     20 S         144.5209  141.2283  164.1777 S.2     1  UNL1       -0.0586
     21 C         137.7774  140.7917  162.3987 C.2     1  UNL1        0.3447
     22 O         137.2481  139.6024  161.6536 O.2     1  UNL1       -0.2450
     23 O         136.8268  141.7840  163.0000 O.3     1  UNL1       -0.4455
     24 C         137.6611  144.2050  163.4390 C.3     1  UNL1        0.0513
     25 C         137.3349  142.8314  163.9459 C.3     1  UNL1        0.2089
     26 C         139.2598  142.5095  160.4360 C.3     1  UNL1        0.1407
     27 N         139.9837  143.4390  159.5077 N.3     1  UNL1       -0.2578
     28 C         140.3676  143.1447  158.0878 C.3     1  UNL1        0.1401
     29 C         141.0720  144.3499  157.5388 C.3     1  UNL1        0.2801
     30 F         141.1722  143.5268  156.2889 F       1  UNL1       -0.2028
     31 F         141.7973  145.3830  156.7284 F       1  UNL1       -0.2028
     32 C         141.1233  145.3890  158.6194 C.3     1  UNL1        0.0897
     33 C         140.4508  144.8260  159.8362 C.3     1  UNL1        0.1003
     34 C         140.2759  145.5271  161.1507 C.2     1  UNL1        0.0650
     35 O         141.1479  145.1642  162.3160 O.co2   1  UNL1       -0.5478
     36 O         139.2291  146.5911  161.3000 O.co2   1  UNL1       -0.5478
@<TRIPOS>UNITY_ATOM_ATTR
35 1
charge -1
@<TRIPOS>BOND
     1    24    25    1
     2    25    23    1
     3    23    21    1
     4    21    22    2
     5    21     1    1
     6     1     2    2
     7     2    26    1
     8    26    27    1
     9    27    28    1
    10    28    29    1
    11    29    30    1
    12    29    31    1
    13    29    32    1
    14    32    33    1
    15    33    34    1
    16    34    35   ar
    17    34    36   ar
    18     2     3    1
    19     3     4    1
    20     4    16    1
    21    16    17   ar
    22    17    18   ar
    23    18    19   ar
    24    19    20   ar
    25     4     5    2
    26     5     6    1
    27     6     8    1
    28     8     9   ar
    29     9    10   ar
    30    10    11   ar
    31    11    12    1
    32    11    13   ar
    33    13    14   ar
    34    14    15    1
    35     6     1    1
    36    14     8   ar
    37    33    27    1
    38    20    16   ar
    39     3     7    1
@<TRIPOS>MOLECULE
*****
 36 39 0 0 0
SMALL
GASTEIGER

@<TRIPOS>ATOM
      1 C         141.3542  139.6773  164.0772 C.2     1  UNL1        0.1397
      2 C         141.5741  139.8949  162.6095 C.2     1  UNL1        0.1355
      3 N         141.2795  141.2322  161.9971 N.pl3   1  UNL1       -0.1998
      4 C         140.7650  142.3518  162.8525 C.2     1  UNL1        0.3442
      5 N         140.5451  142.1342  164.3202 N.2     1  UNL1       -0.0580
      6 C         140.8398  140.7970  164.9326 C.3     1  UNL1        0.2692
      7 H         141.4238  141.3750  161.0338 H       1  UNL1        0.2983
      8 C         140.6199  140.5794  166.4004 C.ar    1  UNL1        0.0371
      9 C         141.6979  140.9347  167.3810 C.ar    1  UNL1        0.0030
     10 C         141.4781  140.7171  168.8487 C.ar    1  UNL1        0.0295
     11 C         140.1801  140.1443  169.3359 C.ar    1  UNL1        0.1406
     12 F         139.9603  139.9267  170.8037 F       1  UNL1       -0.2042
     13 C         139.1021  139.7890  168.3553 C.ar    1  UNL1        0.0362
     14 C         139.3220  140.0066  166.8875 C.ar    1  UNL1        0.0372
     15 BR        138.2439  139.6513  165.9069 Br      1  UNL1       -0.0491
     16 C         140.4704  143.6891  162.2401 C.ar    1  UNL1        0.1931
     17 N         140.8447  144.1262  160.8549 N.ar    1  UNL1       -0.2297
     18 C         140.3554  145.5313  160.6641 C.ar    1  UNL1        0.1067
     19 C         139.6787  145.9625  161.9314 C.ar    1  UNL1        0.0577
     20 S         139.7498  144.8240  162.9054 S.2     1  UNL1       -0.0586
     21 C         141.6488  138.3401  164.6896 C.2     1  UNL1        0.3447
     22 O         140.6056  137.2625  164.6754 O.2     1  UNL1       -0.2450
     23 O         142.9867  138.0805  165.3161 O.3     1  UNL1       -0.4455
     24 C         144.9693  139.3312  164.1957 C.3     1  UNL1        0.0513
     25 C         144.0231  139.1644  165.3477 C.3     1  UNL1        0.2089
     26 C         142.0886  138.7753  161.7540 C.3     1  UNL1        0.1407
     27 N         141.6057  138.6277  160.3416 N.3     1  UNL1       -0.2578
     28 C         142.4708  138.5042  159.1224 C.3     1  UNL1        0.1401
     29 C         141.5727  138.3779  157.9276 C.3     1  UNL1        0.2801
     30 F         142.8614  138.3027  157.1638 F       1  UNL1       -0.2028
     31 F         140.9441  138.2359  156.5732 F       1  UNL1       -0.2028
     32 C         140.1526  138.4234  158.4084 C.3     1  UNL1        0.0897
     33 C         140.1730  138.5778  159.9003 C.3     1  UNL1        0.1003
     34 C         138.9716  138.6668  160.7940 C.2     1  UNL1        0.0650
     35 O         137.8981  139.6750  160.5094 O.co2   1  UNL1       -0.5478
     36 O         138.8435  137.7474  161.9723 O.co2   1  UNL1       -0.5478
@<TRIPOS>UNITY_ATOM_ATTR
35 1
charge -1
@<TRIPOS>BOND
     1    24    25    1
     2    25    23    1
     3    23    21    1
     4    21    22    2
     5    21     1    1
     6     1     2    2
     7     2    26    1
     8    26    27    1
     9    27    28    1
    10    28    29    1
    11    29    30    1
    12    29    31    1
    13    29    32    1
    14    32    33    1
    15    33    34    1
    16    34    35   ar
    17    34    36   ar
    18     2     3    1
    19     3     4    1
    20     4    16    1
    21    16    17   ar
    22    17    18   ar
    23    18    19   ar
    24    19    20   ar
    25     4     5    2
    26     5     6    1
    27     6     8    1
    28     8     9   ar
    29     9    10   ar
    30    10    11   ar
    31    11    12    1
    32    11    13   ar
    33    13    14   ar
    34    14    15    1
    35     6     1    1
    36    14     8   ar
    37    33    27    1
    38    20    16   ar
    39     3     7    1
@<TRIPOS>MOLECULE
*****
 36 39 0 0 0
SMALL
GASTEIGER

@<TRIPOS>ATOM
      1 C         139.4690  142.0149  163.7340 C.2     1  UNL1        0.1397
      2 C         139.4976  141.9237  162.2371 C.2     1  UNL1        0.1355
      3 N         140.4034  140.9361  161.5630 N.pl3   1  UNL1       -0.1998
      4 C         141.2806  140.0399  162.3859 C.2     1  UNL1        0.3442
      5 N         141.2520  140.1311  163.8828 N.2     1  UNL1       -0.0580
      6 C         140.3462  141.1186  164.5568 C.3     1  UNL1        0.2692
      7 H         140.4221  140.8762  160.5805 H       1  UNL1        0.2983
      8 C         140.3177  141.2099  166.0538 C.ar    1  UNL1        0.0371
      9 C         141.1621  142.2294  166.7593 C.ar    1  UNL1        0.0030
     10 C         141.1336  142.3207  168.2562 C.ar    1  UNL1        0.0295
     11 C         140.2607  141.3924  169.0478 C.ar    1  UNL1        0.1406
     12 F         140.2322  141.4836  170.5447 F       1  UNL1       -0.2042
     13 C         139.4164  140.3729  168.3423 C.ar    1  UNL1        0.0362
     14 C         139.4449  140.2816  166.8453 C.ar    1  UNL1        0.0372
     15 BR        138.6005  139.2621  166.1399 Br      1  UNL1       -0.0491
     16 C         142.1863  139.0523  161.7118 C.ar    1  UNL1        0.1931
     17 N         141.8599  138.2493  160.4877 N.ar    1  UNL1       -0.2297
     18 C         143.0494  137.3951  160.1628 C.ar    1  UNL1        0.1067
     19 C         144.1110  137.6702  161.1862 C.ar    1  UNL1        0.0577
     20 S         143.5776  138.6944  162.1435 S.2     1  UNL1       -0.0586
     21 C         138.5632  143.0024  164.4080 C.2     1  UNL1        0.3447
     22 O         137.1187  142.6651  164.6302 O.2     1  UNL1       -0.2450
     23 O         139.1020  144.3273  164.8600 O.3     1  UNL1       -0.4455
     24 C         141.4722  144.8734  163.9467 C.3     1  UNL1        0.0513
     25 C         139.9932  145.1234  163.9532 C.3     1  UNL1        0.2089
     26 C         138.6203  142.8199  161.4141 C.3     1  UNL1        0.1407
     27 N         138.8645  142.9615  159.9409 N.3     1  UNL1       -0.2578
     28 C         138.3185  142.0681  158.8669 C.3     1  UNL1        0.1401
     29 C         138.8141  142.5757  157.5453 C.3     1  UNL1        0.2801
     30 F         138.0312  141.4244  156.9873 F       1  UNL1       -0.2028
     31 F         139.1460  142.8427  156.1070 F       1  UNL1       -0.2028
     32 C         139.6664  143.7830  157.8026 C.3     1  UNL1        0.0897
     33 C         139.6975  144.0214  159.2832 C.3     1  UNL1        0.1003
     34 C         140.4327  145.1257  159.9831 C.2     1  UNL1        0.0650
     35 O         141.9312  145.1756  159.9378 O.co2   1  UNL1       -0.5478
     36 O         139.6694  146.1803  160.7283 O.co2   1  UNL1       -0.5478
@<TRIPOS>UNITY_ATOM_ATTR
35 1
charge -1
@<TRIPOS>BOND
     1    24    25    1
     2    25    23    1
     3    23    21    1
     4    21    22    2
     5    21     1    1
     6     1     2    2
     7     2    26    1
     8    26    27    1
     9    27    28    1
    10    28    29    1
    11    29    30    1
    12    29    31    1
    13    29    32    1
    14    32    33    1
    15    33    34    1
    16    34    35   ar
    17    34    36   ar
    18     2     3    1
    19     3     4    1
    20     4    16    1
    21    16    17   ar
    22    17    18   ar
    23    18    19   ar
    24    19    20   ar
    25     4     5    2
    26     5     6    1
    27     6     8    1
    28     8     9   ar
    29     9    10   ar
    30    10    11   ar
    31    11    12    1
    32    11    13   ar
    33    13    14   ar
    34    14    15    1
    35     6     1    1
    36    14     8   ar
    37    33    27    1
    38    20    16   ar
    39     3     7    1
@<TRIPOS>MOLECULE
*****
 36 39 0 0 0
SMALL
GASTEIGER

@<TRIPOS>ATOM
      1 C         141.9906  141.9184  162.9021 C.2     1  UNL1        0.1397
      2 C         141.5438  142.7806  161.7589 C.2     1  UNL1        0.1355
      3 N         141.7717  142.3306  160.3463 N.pl3   1  UNL1       -0.1998
      4 C         142.4465  141.0183  160.0768 C.2     1  UNL1        0.3442
      5 N         142.8934  140.1562  161.2200 N.2     1  UNL1       -0.0580
      6 C         142.6654  140.6062  162.6326 C.3     1  UNL1        0.2692
      7 H         141.4784  142.8965  159.5960 H       1  UNL1        0.2983
      8 C         143.1123  139.7439  163.7759 C.ar    1  UNL1        0.0371
      9 C         142.1745  138.7306  164.3622 C.ar    1  UNL1        0.0030
     10 C         142.6214  137.8683  165.5053 C.ar    1  UNL1        0.0295
     11 C         144.0060  138.0194  166.0622 C.ar    1  UNL1        0.1406
     12 F         144.4528  137.1571  167.2054 F       1  UNL1       -0.2042
     13 C         144.9438  139.0327  165.4759 C.ar    1  UNL1        0.0362
     14 C         144.4969  139.8950  164.3327 C.ar    1  UNL1        0.0372
     15 BR        145.4346  140.9083  163.7463 Br      1  UNL1       -0.0491
     16 C         142.6745  140.5683  158.6642 C.ar    1  UNL1        0.1931
     17 N         143.7828  139.6750  158.1914 N.ar    1  UNL1       -0.2297
     18 C         143.6275  139.4871  156.7114 C.ar    1  UNL1        0.1067
     19 C         142.4231  140.2644  156.2694 C.ar    1  UNL1        0.0577
     20 S         141.8342  140.9326  157.4763 S.2     1  UNL1       -0.0586
     21 C         141.7627  142.3685  164.3147 C.2     1  UNL1        0.3447
     22 O         142.6876  143.3692  164.9415 O.2     1  UNL1       -0.2450
     23 O         140.6098  141.8177  165.1005 O.3     1  UNL1       -0.4455
     24 C         140.4073  142.7785  167.5059 C.3     1  UNL1        0.0513
     25 C         140.7309  141.6395  166.5850 C.3     1  UNL1        0.2089
     26 C         140.8689  144.0929  162.0283 C.3     1  UNL1        0.1407
     27 N         139.6731  144.1497  162.9321 N.3     1  UNL1       -0.2578
     28 C         139.5808  144.9032  164.2258 C.3     1  UNL1        0.1401
     29 C         138.2103  144.6822  164.7941 C.3     1  UNL1        0.2801
     30 F         138.6998  145.5645  165.9039 F       1  UNL1       -0.2028
     31 F         136.9422  144.6457  165.5944 F       1  UNL1       -0.2028
     32 C         137.4557  143.7922  163.8515 C.3     1  UNL1        0.0897
     33 C         138.3598  143.4631  162.7007 C.3     1  UNL1        0.1003
     34 C         138.0116  142.5991  161.5251 C.2     1  UNL1        0.0650
     35 O         138.2578  143.0949  160.1310 O.co2   1  UNL1       -0.5478
     36 O         137.4171  141.2393  161.7434 O.co2   1  UNL1       -0.5478
@<TRIPOS>UNITY_ATOM_ATTR
35 1
charge -1
@<TRIPOS>BOND
     1    24    25    1
     2    25    23    1
     3    23    21    1
     4    21    22    2
     5    21     1    1
     6     1     2    2
     7     2    26    1
     8    26    27    1
     9    27    28    1
    10    28    29    1
    11    29    30    1
    12    29    31    1
    13    29    32    1
    14    32    33    1
    15    33    34    1
    16    34    35   ar
    17    34    36   ar
    18     2     3    1
    19     3     4    1
    20     4    16    1
    21    16    17   ar
    22    17    18   ar
    23    18    19   ar
    24    19    20   ar
    25     4     5    2
    26     5     6    1
    27     6     8    1
    28     8     9   ar
    29     9    10   ar
    30    10    11   ar
    31    11    12    1
    32    11    13   ar
    33    13    14   ar
    34    14    15    1
    35     6     1    1
    36    14     8   ar
    37    33    27    1
    38    20    16   ar
    39     3     7    1
@<TRIPOS>MOLECULE
*****
 36 39 0 0 0
SMALL
GASTEIGER

@<TRIPOS>ATOM
      1 C         141.2388  140.2997  164.4403 C.2     1  UNL1        0.1397
      2 C         141.1560  140.2626  162.9431 C.2     1  UNL1        0.1355
      3 N         140.8684  141.5194  162.1765 N.pl3   1  UNL1       -0.1998
      4 C         140.6635  142.8133  162.9072 C.2     1  UNL1        0.3442
      5 N         140.7463  142.8503  164.4044 N.2     1  UNL1       -0.0580
      6 C         141.0340  141.5935  165.1710 C.3     1  UNL1        0.2692
      7 H         140.8141  141.4951  161.1938 H       1  UNL1        0.2983
      8 C         141.1167  141.6306  166.6683 C.ar    1  UNL1        0.0371
      9 C         139.9400  141.2046  167.4952 C.ar    1  UNL1        0.0030
     10 C         140.0227  141.2417  168.9925 C.ar    1  UNL1        0.0295
     11 C         141.2822  141.7048  169.6628 C.ar    1  UNL1        0.1406
     12 F         141.3650  141.7418  171.1601 F       1  UNL1       -0.2042
     13 C         142.4590  142.1308  168.8359 C.ar    1  UNL1        0.0362
     14 C         142.3762  142.0937  167.3386 C.ar    1  UNL1        0.0372
     15 BR        143.5529  142.5197  166.5116 Br      1  UNL1       -0.0491
     16 C         140.3759  144.0701  162.1406 C.ar    1  UNL1        0.1931
     17 N         139.7340  145.3100  162.6890 N.ar    1  UNL1       -0.2297
     18 C         139.6410  146.3139  161.5784 C.ar    1  UNL1        0.1067
     19 C         140.2255  145.6945  160.3435 C.ar    1  UNL1        0.0577
     20 S         140.6796  144.3078  160.6910 S.2     1  UNL1       -0.0586
     21 C         141.5265  139.0428  165.2069 C.2     1  UNL1        0.3447
     22 O         142.9026  138.7933  165.7490 O.2     1  UNL1       -0.2450
     23 O         140.4380  138.0355  165.4314 O.3     1  UNL1       -0.4455
     24 C         138.0308  138.4240  166.3286 C.3     1  UNL1        0.0513
     25 C         139.0063  138.4118  165.1891 C.3     1  UNL1        0.2089
     26 C         141.3609  138.9687  162.2124 C.3     1  UNL1        0.1407
     27 N         140.9057  138.8305  160.7899 N.3     1  UNL1       -0.2578
     28 C         141.7855  138.5644  159.6045 C.3     1  UNL1        0.1401
     29 C         140.9143  138.5036  158.3849 C.3     1  UNL1        0.2801
     30 F         142.2068  138.2514  157.6669 F       1  UNL1       -0.2028
     31 F         140.3133  138.3900  157.0153 F       1  UNL1       -0.2028
     32 C         139.4960  138.7321  158.8166 C.3     1  UNL1        0.0897
     33 C         139.4907  138.9341  160.3030 C.3     1  UNL1        0.1003
     34 C         138.2825  139.1941  161.1531 C.2     1  UNL1        0.0650
     35 O         137.4770  138.0451  161.6829 O.co2   1  UNL1       -0.5478
     36 O         137.8799  140.6032  161.4734 O.co2   1  UNL1       -0.5478
@<TRIPOS>UNITY_ATOM_ATTR
35 1
charge -1
@<TRIPOS>BOND
     1    24    25    1
     2    25    23    1
     3    23    21    1
     4    21    22    2
     5    21     1    1
     6     1     2    2
     7     2    26    1
     8    26    27    1
     9    27    28    1
    10    28    29    1
    11    29    30    1
    12    29    31    1
    13    29    32    1
    14    32    33    1
    15    33    34    1
    16    34    35   ar
    17    34    36   ar
    18     2     3    1
    19     3     4    1
    20     4    16    1
    21    16    17   ar
    22    17    18   ar
    23    18    19   ar
    24    19    20   ar
    25     4     5    2
    26     5     6    1
    27     6     8    1
    28     8     9   ar
    29     9    10   ar
    30    10    11   ar
    31    11    12    1
    32    11    13   ar
    33    13    14   ar
    34    14    15    1
    35     6     1    1
    36    14     8   ar
    37    33    27    1
    38    20    16   ar
    39     3     7    1
@<TRIPOS>MOLECULE
*****
 36 39 0 0 0
SMALL
GASTEIGER

@<TRIPOS>ATOM
      1 C         141.3318  141.7654  161.9382 C.2     1  UNL1        0.1397
      2 C         141.8394  142.1028  160.5677 C.2     1  UNL1        0.1355
      3 N         141.6633  141.1275  159.4416 N.pl3   1  UNL1       -0.1998
      4 C         140.9797  139.8150  159.6862 C.2     1  UNL1        0.3442
      5 N         140.4721  139.4777  161.0568 N.2     1  UNL1       -0.0580
      6 C         140.6482  140.4529  162.1828 C.3     1  UNL1        0.2692
      7 H         141.9965  141.3490  158.5421 H       1  UNL1        0.2983
      8 C         140.1406  140.1155  163.5534 C.ar    1  UNL1        0.0371
      9 C         141.0619  139.4985  164.5636 C.ar    1  UNL1        0.0030
     10 C         140.5544  139.1611  165.9341 C.ar    1  UNL1        0.0295
     11 C         139.1254  139.4407  166.2946 C.ar    1  UNL1        0.1406
     12 F         138.6178  139.1033  167.6652 F       1  UNL1       -0.2042
     13 C         138.2040  140.0578  165.2845 C.ar    1  UNL1        0.0362
     14 C         138.7116  140.3952  163.9139 C.ar    1  UNL1        0.0372
     15 BR        137.7903  141.0122  162.9037 Br      1  UNL1       -0.0491
     16 C         140.8037  138.8398  158.5601 C.ar    1  UNL1        0.1931
     17 N         139.5022  138.4588  157.9190 N.ar    1  UNL1       -0.2297
     18 C         139.7924  137.4579  156.8402 C.ar    1  UNL1        0.1067
     19 C         141.2732  137.2202  156.8145 C.ar    1  UNL1        0.0577
     20 S         141.8982  138.0743  157.8775 S.2     1  UNL1       -0.0586
     21 C         141.5078  142.7407  163.0643 C.2     1  UNL1        0.3447
     22 O         142.8330  142.8544  163.7577 O.2     1  UNL1       -0.2450
     23 O         140.3586  143.6021  163.4969 O.3     1  UNL1       -0.4455
     24 C         138.9175  144.6444  165.3908 C.3     1  UNL1        0.0513
     25 C         140.0309  143.7389  164.9543 C.3     1  UNL1        0.2089
     26 C         142.5230  143.4154  160.3231 C.3     1  UNL1        0.1407
     27 N         142.0041  144.3460  159.2673 N.3     1  UNL1       -0.2578
     28 C         142.6034  144.5601  157.9089 C.3     1  UNL1        0.1401
     29 C         141.7645  145.5723  157.1866 C.3     1  UNL1        0.2801
     30 F         142.7498  145.3634  156.0751 F       1  UNL1       -0.2028
     31 F         141.1317  146.5408  156.2319 F       1  UNL1       -0.2028
     32 C         140.6468  145.9837  158.0985 C.3     1  UNL1        0.0897
     33 C         140.7950  145.2258  159.3844 C.3     1  UNL1        0.1003
     34 C         139.8923  145.3295  160.5780 C.2     1  UNL1        0.0650
     35 O         138.9307  144.2213  160.8896 O.co2   1  UNL1       -0.5478
     36 O         139.9513  146.5414  161.4599 O.co2   1  UNL1       -0.5478
@<TRIPOS>UNITY_ATOM_ATTR
35 1
charge -1
@<TRIPOS>BOND
     1    24    25    1
     2    25    23    1
     3    23    21    1
     4    21    22    2
     5    21     1    1
     6     1     2    2
     7     2    26    1
     8    26    27    1
     9    27    28    1
    10    28    29    1
    11    29    30    1
    12    29    31    1
    13    29    32    1
    14    32    33    1
    15    33    34    1
    16    34    35   ar
    17    34    36   ar
    18     2     3    1
    19     3     4    1
    20     4    16    1
    21    16    17   ar
    22    17    18   ar
    23    18    19   ar
    24    19    20   ar
    25     4     5    2
    26     5     6    1
    27     6     8    1
    28     8     9   ar
    29     9    10   ar
    30    10    11   ar
    31    11    12    1
    32    11    13   ar
    33    13    14   ar
    34    14    15    1
    35     6     1    1
    36    14     8   ar
    37    33    27    1
    38    20    16   ar
    39     3     7    1
@<TRIPOS>MOLECULE
*****
 36 39 0 0 0
SMALL
GASTEIGER

@<TRIPOS>ATOM
      1 C         139.2935  140.9059  160.9667 C.2     1  UNL1        0.1397
      2 C         139.3325  140.1374  159.6791 C.2     1  UNL1        0.1355
      3 N         138.9382  140.8050  158.3950 N.pl3   1  UNL1       -0.1998
      4 C         138.5048  142.2410  158.3985 C.2     1  UNL1        0.3442
      5 N         138.4658  143.0095  159.6861 N.2     1  UNL1       -0.0580
      6 C         138.8602  142.3419  160.9702 C.3     1  UNL1        0.2692
      7 H         138.9638  140.3006  157.5499 H       1  UNL1        0.2983
      8 C         138.8211  143.1104  162.2578 C.ar    1  UNL1        0.0371
      9 C         137.5993  143.0571  163.1263 C.ar    1  UNL1        0.0030
     10 C         137.5602  143.8255  164.4139 C.ar    1  UNL1        0.0295
     11 C         138.7430  144.6474  164.8330 C.ar    1  UNL1        0.1406
     12 F         138.7040  145.4159  166.1206 F       1  UNL1       -0.2042
     13 C         139.9649  144.7007  163.9645 C.ar    1  UNL1        0.0362
     14 C         140.0039  143.9322  162.6769 C.ar    1  UNL1        0.0372
     15 BR        141.2257  143.9856  161.8084 Br      1  UNL1       -0.0491
     16 C         138.1105  142.9086  157.1144 C.ar    1  UNL1        0.1931
     17 N         138.8190  144.0607  156.4659 N.ar    1  UNL1       -0.2297
     18 C         138.0848  144.4054  155.2041 C.ar    1  UNL1        0.1067
     19 C         136.9225  143.4663  155.0728 C.ar    1  UNL1        0.0577
     20 S         136.9384  142.5412  156.2535 S.2     1  UNL1       -0.0586
     21 C         139.6878  140.2383  162.2508 C.2     1  UNL1        0.3447
     22 O         141.1129  140.2897  162.7159 O.2     1  UNL1       -0.2450
     23 O         138.6571  139.5194  163.0697 O.3     1  UNL1       -0.4455
     24 C         138.9406  137.6872  164.8898 C.3     1  UNL1        0.0513
     25 C         138.8660  138.0821  163.4446 C.3     1  UNL1        0.2089
     26 C         139.7659  138.7014  159.6755 C.3     1  UNL1        0.1407
     27 N         140.5644  138.1618  158.5261 N.3     1  UNL1       -0.2578
     28 C         140.0123  137.6888  157.2140 C.3     1  UNL1        0.1401
     29 C         141.1618  137.2351  156.3639 C.3     1  UNL1        0.2801
     30 F         140.0930  136.9346  155.3555 F       1  UNL1       -0.2028
     31 F         142.0879  136.7186  155.3030 F       1  UNL1       -0.2028
     32 C         142.4244  137.4277  157.1507 C.3     1  UNL1        0.0897
     33 C         142.0551  138.0004  158.4870 C.3     1  UNL1        0.1003
     34 C         143.0091  138.3502  159.5903 C.2     1  UNL1        0.0650
     35 O         142.8771  137.6933  160.9323 O.co2   1  UNL1       -0.5478
     36 O         144.0952  139.3570  159.3517 O.co2   1  UNL1       -0.5478
@<TRIPOS>UNITY_ATOM_ATTR
35 1
charge -1
@<TRIPOS>BOND
     1    24    25    1
     2    25    23    1
     3    23    21    1
     4    21    22    2
     5    21     1    1
     6     1     2    2
     7     2    26    1
     8    26    27    1
     9    27    28    1
    10    28    29    1
    11    29    30    1
    12    29    31    1
    13    29    32    1
    14    32    33    1
    15    33    34    1
    16    34    35   ar
    17    34    36   ar
    18     2     3    1
    19     3     4    1
    20     4    16    1
    21    16    17   ar
    22    17    18   ar
    23    18    19   ar
    24    19    20   ar
    25     4     5    2
    26     5     6    1
    27     6     8    1
    28     8     9   ar
    29     9    10   ar
    30    10    11   ar
    31    11    12    1
    32    11    13   ar
    33    13    14   ar
    34    14    15    1
    35     6     1    1
    36    14     8   ar
    37    33    27    1
    38    20    16   ar
    39     3     7    1
@<TRIPOS>MOLECULE
*****
 36 39 0 0 0
SMALL
GASTEIGER

@<TRIPOS>ATOM
      1 C         140.7587  140.3035  164.4722 C.2     1  UNL1        0.1397
      2 C         140.4494  140.2344  163.0061 C.2     1  UNL1        0.1355
      3 N         140.2575  141.4972  162.2197 N.pl3   1  UNL1       -0.1998
      4 C         140.3750  142.8292  162.8994 C.2     1  UNL1        0.3442
      5 N         140.6844  142.8983  164.3655 N.2     1  UNL1       -0.0580
      6 C         140.8762  141.6355  165.1519 C.3     1  UNL1        0.2692
      7 H         140.0545  141.4518  161.2575 H       1  UNL1        0.2983
      8 C         141.1856  141.7047  166.6181 C.ar    1  UNL1        0.0371
      9 C         140.1208  141.3853  167.6251 C.ar    1  UNL1        0.0030
     10 C         140.4301  141.4545  169.0912 C.ar    1  UNL1        0.0295
     11 C         141.8043  141.8431  169.5503 C.ar    1  UNL1        0.1406
     12 F         142.1136  141.9123  171.0164 F       1  UNL1       -0.2042
     13 C         142.8691  142.1625  168.5433 C.ar    1  UNL1        0.0362
     14 C         142.5597  142.0933  167.0771 C.ar    1  UNL1        0.0372
     15 BR        143.6245  142.4127  166.0700 Br      1  UNL1       -0.0491
     16 C         140.1832  144.0920  162.1129 C.ar    1  UNL1        0.1931
     17 N         139.5973  145.3723  162.6301 N.ar    1  UNL1       -0.2297
     18 C         139.5955  146.3678  161.5081 C.ar    1  UNL1        0.1067
     19 C         140.1804  145.7028  160.2974 C.ar    1  UNL1        0.0577
     20 S         140.5435  144.2962  160.6713 S.2     1  UNL1       -0.0586
     21 C         140.9506  139.0407  165.2587 C.2     1  UNL1        0.3447
     22 O         142.3269  138.6255  165.6866 O.2     1  UNL1       -0.2450
     23 O         139.7661  138.1931  165.6171 O.3     1  UNL1       -0.4455
     24 C         137.6064  138.4856  167.0314 C.3     1  UNL1        0.0513
     25 C         138.4229  138.8290  165.8208 C.3     1  UNL1        0.2089
     26 C         140.3319  138.9023  162.3264 C.3     1  UNL1        0.1407
     27 N         140.7389  138.7547  160.8903 N.3     1  UNL1       -0.2578
     28 C         139.8102  138.6401  159.7179 C.3     1  UNL1        0.1401
     29 C         140.6435  138.5103  158.4774 C.3     1  UNL1        0.2801
     30 F         139.3161  138.4460  157.7821 F       1  UNL1       -0.2028
     31 F         141.1992  138.3670  157.0916 F       1  UNL1       -0.2028
     32 C         142.0872  138.5446  158.8832 C.3     1  UNL1        0.0897
     33 C         142.1461  138.6957  160.3744 C.3     1  UNL1        0.1003
     34 C         143.3934  138.7740  161.2040 C.2     1  UNL1        0.0650
     35 O         143.7963  140.0755  161.8314 O.co2   1  UNL1       -0.5478
     36 O         144.2378  137.5508  161.4062 O.co2   1  UNL1       -0.5478
@<TRIPOS>UNITY_ATOM_ATTR
35 1
charge -1
@<TRIPOS>BOND
     1    24    25    1
     2    25    23    1
     3    23    21    1
     4    21    22    2
     5    21     1    1
     6     1     2    2
     7     2    26    1
     8    26    27    1
     9    27    28    1
    10    28    29    1
    11    29    30    1
    12    29    31    1
    13    29    32    1
    14    32    33    1
    15    33    34    1
    16    34    35   ar
    17    34    36   ar
    18     2     3    1
    19     3     4    1
    20     4    16    1
    21    16    17   ar
    22    17    18   ar
    23    18    19   ar
    24    19    20   ar
    25     4     5    2
    26     5     6    1
    27     6     8    1
    28     8     9   ar
    29     9    10   ar
    30    10    11   ar
    31    11    12    1
    32    11    13   ar
    33    13    14   ar
    34    14    15    1
    35     6     1    1
    36    14     8   ar
    37    33    27    1
    38    20    16   ar
    39     3     7    1
