@<TRIPOS>MOLECULE
*****
 40 46 0 0 0
SMALL
GASTEIGER

@<TRIPOS>ATOM
      1 C         137.7431  139.6146  162.0373 C.3     1  UNL1        0.0700
      2 C         137.6151  140.7130  163.0507 C.3     1  UNL1        0.0193
      3 C         138.2211  140.5508  164.4132 C.3     1  UNL1        0.0287
      4 C         138.9552  139.2901  164.7623 C.3     1  UNL1        0.0955
      5 C         139.0833  138.1916  163.7489 C.3     1  UNL1        0.0287
      6 C         138.4772  138.3539  162.3864 C.3     1  UNL1        0.0193
      7 O         138.6399  139.3332  164.0029 O.3     1  UNL1       -0.3571
      8 C         138.0919  139.4798  162.7709 C.3     1  UNL1        0.1562
      9 N         137.1371  139.7767  160.6747 N.3     1  UNL1       -0.2926
     10 H         136.9256  138.8392  160.3330 H       1  UNL1        0.1236
     11 C         137.9063  140.4699  159.5895 C.3     1  UNL1        0.1152
     12 O         145.2652  141.5384  161.9251 O.2     1  UNL1       -0.2707
     13 C         143.9424  142.1033  161.4993 C.2     1  UNL1        0.2707
     14 C         143.7499  143.5890  161.4262 C.3     1  UNL1        0.2898
     15 O         142.4272  144.1539  161.0004 O.3     1  UNL1       -0.4628
     16 C         141.2970  143.2329  160.6477 C.ar    1  UNL1        0.1716
     17 C         139.9742  143.7976  160.2218 C.ar    1  UNL1        0.1365
     18 N         138.8440  142.8766  159.8691 N.ar    1  UNL1       -0.2435
     19 C         139.0366  141.3908  159.9422 C.ar    1  UNL1        0.0764
     20 C         140.3593  140.8261  160.3681 C.ar    1  UNL1        0.0339
     21 C         141.4895  141.7471  160.7208 C.ar    1  UNL1        0.0877
     22 N         142.8122  141.1822  161.1466 N.am    1  UNL1       -0.2784
     23 H         142.9386  140.2071  161.1946 H       1  UNL1        0.1551
     24 C         139.5613  139.1279  166.1248 C.3     1  UNL1        0.0604
     25 C         140.6876  140.0200  166.5557 C.3     1  UNL1        0.1335
     26 O         141.2284  139.7352  165.1859 O.3     1  UNL1       -0.3806
     27 C         141.9269  140.8525  166.7003 C.3     1  UNL1        0.1402
     28 N         141.9166  141.4653  168.0694 N.ar    1  UNL1       -0.2915
     29 C         142.8806  142.3779  168.7678 C.ar    1  UNL1        0.2611
     30 O         144.1263  142.8317  168.0662 O.2     1  UNL1       -0.2670
     31 C         142.5988  142.8367  170.1678 C.ar    1  UNL1        0.0623
     32 C         141.3531  142.3829  170.8694 C.ar    1  UNL1        0.0254
     33 C         140.3891  141.4703  170.1710 C.ar    1  UNL1        0.0972
     34 N         139.0842  140.8658  170.6205 N.ar    1  UNL1       -0.2400
     35 C         138.2176  139.9579  169.7991 C.ar    1  UNL1        0.1282
     36 C         138.6312  139.5841  168.4065 C.ar    1  UNL1        0.1588
     37 F         137.7647  138.6762  167.5851 F       1  UNL1       -0.2027
     38 C         139.9113  140.1182  167.8354 C.ar    1  UNL1        0.0500
     39 C         140.6709  141.0115  168.7709 C.ar    1  UNL1        0.0806
     40 H         142.0701  140.2025  165.0670 H       1  UNL1        0.2108
@<TRIPOS>BOND
     1    12    13    2
     2    13    14    1
     3    14    15    1
     4    15    16    1
     5    16    17   ar
     6    17    18   ar
     7    18    19   ar
     8    19    11    1
     9    11     9    1
    10     9     1    1
    11     1     2    1
    12     2     3    1
    13     3     4    1
    14     4    24    1
    15    24    25    1
    16    25    26    1
    17    25    27    1
    18    27    28    1
    19    28    29   ar
    20    29    30    2
    21    29    31   ar
    22    31    32   ar
    23    32    33   ar
    24    33    34   ar
    25    34    35   ar
    26    35    36   ar
    27    36    37    1
    28    36    38   ar
    29    38    39   ar
    30     4     5    1
    31     5     6    1
    32     4     7    1
    33     7     8    1
    34    19    20   ar
    35    20    21   ar
    36    21    22    1
    37    22    13   am
    38    21    16   ar
    39     6     1    1
    40     8     1    1
    41    38    25    1
    42    39    28   ar
    43    39    33   ar
    44     9    10    1
    45    26    40    1
    46    22    23    1
@<TRIPOS>MOLECULE
*****
 40 46 0 0 0
SMALL
GASTEIGER

@<TRIPOS>ATOM
      1 C         144.4919  140.2835  157.2715 C.3     1  UNL1        0.0700
      2 C         145.1495  141.6316  157.2651 C.3     1  UNL1        0.0193
      3 C         144.9824  142.5532  158.4368 C.3     1  UNL1        0.0287
      4 C         144.1578  142.1265  159.6150 C.3     1  UNL1        0.0955
      5 C         143.5002  140.7783  159.6214 C.3     1  UNL1        0.0287
      6 C         143.6673  139.8568  158.4496 C.3     1  UNL1        0.0193
      7 O         144.2205  141.5871  158.9960 O.3     1  UNL1       -0.3571
      8 C         144.3716  140.7539  157.9365 C.3     1  UNL1        0.1562
      9 N         144.6590  139.3619  156.0998 N.3     1  UNL1       -0.2926
     10 H         145.2556  139.8448  155.4281 H       1  UNL1        0.1236
     11 C         143.4547  138.8839  155.3440 C.3     1  UNL1        0.1152
     12 O         145.0297  131.3697  156.6883 O.2     1  UNL1       -0.2707
     13 C         144.0395  132.4563  156.3897 C.2     1  UNL1        0.2707
     14 C         142.5844  132.1246  156.2405 C.3     1  UNL1        0.2898
     15 O         141.5942  133.2111  155.9419 O.3     1  UNL1       -0.4628
     16 C         142.0593  134.6293  155.7924 C.ar    1  UNL1        0.1716
     17 C         141.0693  135.7158  155.4938 C.ar    1  UNL1        0.1365
     18 N         141.5344  137.1340  155.3443 N.ar    1  UNL1       -0.2435
     19 C         142.9897  137.4657  155.4935 C.ar    1  UNL1        0.0764
     20 C         143.9797  136.3791  155.7921 C.ar    1  UNL1        0.0339
     21 C         143.5146  134.9609  155.9416 C.ar    1  UNL1        0.0877
     22 N         144.5047  133.8745  156.2402 N.am    1  UNL1       -0.2784
     23 H         145.4598  134.0922  156.3381 H       1  UNL1        0.1551
     24 C         143.9907  143.0480  160.7867 C.3     1  UNL1        0.0604
     25 C         142.6434  143.6295  161.0974 C.3     1  UNL1        0.1335
     26 O         142.6595  144.0342  159.6531 O.3     1  UNL1       -0.3806
     27 C         141.2994  144.2956  161.1062 C.3     1  UNL1        0.1402
     28 N         140.7343  144.1809  162.4910 N.ar    1  UNL1       -0.2915
     29 C         139.4425  144.6524  163.0901 C.ar    1  UNL1        0.2611
     30 O         138.4478  145.3893  162.2430 O.2     1  UNL1       -0.2670
     31 C         139.1454  144.3869  164.5361 C.ar    1  UNL1        0.0623
     32 C         140.1402  143.6500  165.3832 C.ar    1  UNL1        0.0254
     33 C         141.4320  143.1785  164.7841 C.ar    1  UNL1        0.0972
     34 N         142.5940  142.4293  165.3830 N.ar    1  UNL1       -0.2400
     35 C         143.8366  142.0209  164.6488 C.ar    1  UNL1        0.1282
     36 C         143.9941  142.3579  163.1957 C.ar    1  UNL1        0.1588
     37 F         145.2367  141.9495  162.4615 F       1  UNL1       -0.2027
     38 C         142.9089  143.1032  162.4767 C.ar    1  UNL1        0.0500
     39 C         141.7290  143.4440  163.3380 C.ar    1  UNL1        0.0806
     40 H         141.8380  144.5039  159.4398 H       1  UNL1        0.2108
@<TRIPOS>BOND
     1    12    13    2
     2    13    14    1
     3    14    15    1
     4    15    16    1
     5    16    17   ar
     6    17    18   ar
     7    18    19   ar
     8    19    11    1
     9    11     9    1
    10     9     1    1
    11     1     2    1
    12     2     3    1
    13     3     4    1
    14     4    24    1
    15    24    25    1
    16    25    26    1
    17    25    27    1
    18    27    28    1
    19    28    29   ar
    20    29    30    2
    21    29    31   ar
    22    31    32   ar
    23    32    33   ar
    24    33    34   ar
    25    34    35   ar
    26    35    36   ar
    27    36    37    1
    28    36    38   ar
    29    38    39   ar
    30     4     5    1
    31     5     6    1
    32     4     7    1
    33     7     8    1
    34    19    20   ar
    35    20    21   ar
    36    21    22    1
    37    22    13   am
    38    21    16   ar
    39     6     1    1
    40     8     1    1
    41    38    25    1
    42    39    28   ar
    43    39    33   ar
    44     9    10    1
    45    26    40    1
    46    22    23    1
@<TRIPOS>MOLECULE
*****
 40 46 0 0 0
SMALL
GASTEIGER

@<TRIPOS>ATOM
      1 C         137.9788  139.5776  161.5119 C.3     1  UNL1        0.0700
      2 C         138.5623  138.2592  161.9258 C.3     1  UNL1        0.0193
      3 C         139.0875  138.0756  163.3188 C.3     1  UNL1        0.0287
      4 C         139.0291  139.2105  164.2980 C.3     1  UNL1        0.0955
      5 C         138.4456  140.5290  163.8841 C.3     1  UNL1        0.0287
      6 C         137.9204  140.7124  162.4910 C.3     1  UNL1        0.0193
      7 O         138.7289  139.3587  163.5457 O.3     1  UNL1       -0.3571
      8 C         138.2541  139.5247  162.2862 C.3     1  UNL1        0.1562
      9 N         137.4536  139.7612  160.1189 N.3     1  UNL1       -0.2926
     10 H         137.1907  138.8361  159.7790 H       1  UNL1        0.1236
     11 C         138.3238  140.3786  159.0647 C.3     1  UNL1        0.1152
     12 O         141.8228  134.6695  155.0755 O.2     1  UNL1       -0.2707
     13 C         141.9090  135.8753  155.9636 C.2     1  UNL1        0.2707
     14 C         143.2477  136.3837  156.4100 C.3     1  UNL1        0.2898
     15 O         143.3339  137.5895  157.2982 O.3     1  UNL1       -0.4628
     16 C         142.0814  138.2868  157.7398 C.ar    1  UNL1        0.1716
     17 C         142.1675  139.4925  158.6279 C.ar    1  UNL1        0.1365
     18 N         140.9150  140.1898  159.0695 N.ar    1  UNL1       -0.2435
     19 C         139.5763  139.6813  158.6230 C.ar    1  UNL1        0.0764
     20 C         139.4902  138.4756  157.7349 C.ar    1  UNL1        0.0339
     21 C         140.7427  137.7783  157.2933 C.ar    1  UNL1        0.0877
     22 N         140.6565  136.5726  156.4052 N.am    1  UNL1       -0.2784
     23 H         139.7778  136.2388  156.1122 H       1  UNL1        0.1551
     24 C         139.5543  139.0270  165.6910 C.3     1  UNL1        0.0604
     25 C         140.6232  139.9392  166.2159 C.3     1  UNL1        0.1335
     26 O         141.2434  139.7313  164.8660 O.3     1  UNL1       -0.3806
     27 C         141.8216  140.8079  166.4586 C.3     1  UNL1        0.1402
     28 N         141.7187  141.3619  167.8487 N.ar    1  UNL1       -0.2915
     29 C         142.6112  142.2777  168.6328 C.ar    1  UNL1        0.2611
     30 O         143.8733  142.8040  168.0163 O.2     1  UNL1       -0.2670
     31 C         142.2415  142.6671  170.0334 C.ar    1  UNL1        0.0623
     32 C         140.9794  142.1408  170.6498 C.ar    1  UNL1        0.0254
     33 C         140.0870  141.2250  169.8657 C.ar    1  UNL1        0.0972
     34 N         138.7842  140.5568  170.2216 N.ar    1  UNL1       -0.2400
     35 C         137.9951  139.6543  169.3201 C.ar    1  UNL1        0.1282
     36 C         138.4928  139.3541  167.9373 C.ar    1  UNL1        0.1588
     37 F         137.7037  138.4516  167.0357 F       1  UNL1       -0.2027
     38 C         139.7795  139.9563  167.4560 C.ar    1  UNL1        0.0500
     39 C         140.4566  140.8356  168.4652 C.ar    1  UNL1        0.0806
     40 H         142.0720  140.2324  164.8103 H       1  UNL1        0.2108
@<TRIPOS>BOND
     1    12    13    2
     2    13    14    1
     3    14    15    1
     4    15    16    1
     5    16    17   ar
     6    17    18   ar
     7    18    19   ar
     8    19    11    1
     9    11     9    1
    10     9     1    1
    11     1     2    1
    12     2     3    1
    13     3     4    1
    14     4    24    1
    15    24    25    1
    16    25    26    1
    17    25    27    1
    18    27    28    1
    19    28    29   ar
    20    29    30    2
    21    29    31   ar
    22    31    32   ar
    23    32    33   ar
    24    33    34   ar
    25    34    35   ar
    26    35    36   ar
    27    36    37    1
    28    36    38   ar
    29    38    39   ar
    30     4     5    1
    31     5     6    1
    32     4     7    1
    33     7     8    1
    34    19    20   ar
    35    20    21   ar
    36    21    22    1
    37    22    13   am
    38    21    16   ar
    39     6     1    1
    40     8     1    1
    41    38    25    1
    42    39    28   ar
    43    39    33   ar
    44     9    10    1
    45    26    40    1
    46    22    23    1
@<TRIPOS>MOLECULE
*****
 40 46 0 0 0
SMALL
GASTEIGER

@<TRIPOS>ATOM
      1 C         141.7590  144.4525  161.7983 C.3     1  UNL1        0.0700
      2 C         140.7506  144.3152  162.9002 C.3     1  UNL1        0.0193
      3 C         140.9555  143.2961  163.9816 C.3     1  UNL1        0.0287
      4 C         142.1688  142.4143  163.9611 C.3     1  UNL1        0.0955
      5 C         143.1772  142.5516  162.8591 C.3     1  UNL1        0.0287
      6 C         142.9722  143.5707  161.7777 C.3     1  UNL1        0.0193
      7 O         142.0997  142.9582  163.3468 O.3     1  UNL1       -0.3571
      8 C         141.9144  143.8796  162.3690 C.3     1  UNL1        0.1562
      9 N         141.5541  145.4716  160.7168 N.3     1  UNL1       -0.2926
     10 H         141.0555  146.2542  161.1404 H       1  UNL1        0.1236
     11 C         140.8037  145.1030  159.4715 C.3     1  UNL1        0.1152
     12 O         141.9820  137.8179  156.9636 O.2     1  UNL1       -0.2707
     13 C         141.0964  138.8425  157.6087 C.2     1  UNL1        0.2707
     14 C         139.7181  138.4632  158.0628 C.3     1  UNL1        0.2898
     15 O         138.8324  139.4877  158.7079 O.3     1  UNL1       -0.4628
     16 C         139.3253  140.8915  158.8988 C.ar    1  UNL1        0.1716
     17 C         138.4397  141.9161  159.5438 C.ar    1  UNL1        0.1365
     18 N         138.9326  143.3199  159.7347 N.ar    1  UNL1       -0.2435
     19 C         140.3109  143.6992  159.2806 C.ar    1  UNL1        0.0764
     20 C         141.1965  142.6746  158.6355 C.ar    1  UNL1        0.0339
     21 C         140.7036  141.2708  158.4446 C.ar    1  UNL1        0.0877
     22 N         141.5892  140.2463  157.7996 N.am    1  UNL1       -0.2784
     23 H         142.4939  140.4953  157.5015 H       1  UNL1        0.1551
     24 C         142.3737  141.3951  165.0425 C.3     1  UNL1        0.0604
     25 C         142.4975  141.8329  166.4718 C.3     1  UNL1        0.1335
     26 O         143.6766  142.6106  165.9670 O.3     1  UNL1       -0.3806
     27 C         142.8678  142.4331  167.7957 C.3     1  UNL1        0.1402
     28 N         141.8917  141.9349  168.8199 N.ar    1  UNL1       -0.2915
     29 C         141.7636  142.1909  170.2923 C.ar    1  UNL1        0.2611
     30 O         142.7372  143.0991  170.9831 O.2     1  UNL1       -0.2670
     31 C         140.6620  141.5386  171.0739 C.ar    1  UNL1        0.0623
     32 C         139.6884  140.6303  170.3830 C.ar    1  UNL1        0.0254
     33 C         139.8165  140.3743  168.9106 C.ar    1  UNL1        0.0972
     34 N         138.9993  139.5256  167.9714 N.ar    1  UNL1       -0.2400
     35 C         139.2519  139.3652  166.5015 C.ar    1  UNL1        0.1282
     36 C         140.3985  140.0842  165.8548 C.ar    1  UNL1        0.1588
     37 F         140.6512  139.9238  164.3850 F       1  UNL1       -0.2027
     38 C         141.2926  140.9636  166.6779 C.ar    1  UNL1        0.0500
     39 C         140.9181  141.0266  168.1291 C.ar    1  UNL1        0.0806
     40 H         144.0821  143.0965  166.7021 H       1  UNL1        0.2108
@<TRIPOS>BOND
     1    12    13    2
     2    13    14    1
     3    14    15    1
     4    15    16    1
     5    16    17   ar
     6    17    18   ar
     7    18    19   ar
     8    19    11    1
     9    11     9    1
    10     9     1    1
    11     1     2    1
    12     2     3    1
    13     3     4    1
    14     4    24    1
    15    24    25    1
    16    25    26    1
    17    25    27    1
    18    27    28    1
    19    28    29   ar
    20    29    30    2
    21    29    31   ar
    22    31    32   ar
    23    32    33   ar
    24    33    34   ar
    25    34    35   ar
    26    35    36   ar
    27    36    37    1
    28    36    38   ar
    29    38    39   ar
    30     4     5    1
    31     5     6    1
    32     4     7    1
    33     7     8    1
    34    19    20   ar
    35    20    21   ar
    36    21    22    1
    37    22    13   am
    38    21    16   ar
    39     6     1    1
    40     8     1    1
    41    38    25    1
    42    39    28   ar
    43    39    33   ar
    44     9    10    1
    45    26    40    1
    46    22    23    1
@<TRIPOS>MOLECULE
*****
 40 46 0 0 0
SMALL
GASTEIGER

@<TRIPOS>ATOM
      1 C         138.2087  139.6497  161.0315 C.3     1  UNL1        0.0700
      2 C         138.7217  138.2818  161.3716 C.3     1  UNL1        0.0193
      3 C         139.4945  138.0642  162.6386 C.3     1  UNL1        0.0287
      4 C         139.7543  139.2146  163.5657 C.3     1  UNL1        0.0955
      5 C         139.2413  140.5825  163.2256 C.3     1  UNL1        0.0287
      6 C         138.4685  140.8000  161.9585 C.3     1  UNL1        0.0193
      7 O         139.3260  139.3827  162.8829 O.3     1  UNL1       -0.3571
      8 C         138.6272  139.5794  161.7372 C.3     1  UNL1        0.1562
      9 N         137.4359  139.8674  159.7645 N.3     1  UNL1       -0.2926
     10 H         136.9378  138.9986  159.5705 H       1  UNL1        0.1236
     11 C         138.1545  140.2454  158.5033 C.3     1  UNL1        0.1152
     12 O         142.1202  134.4573  155.1090 O.2     1  UNL1       -0.2707
     13 C         142.1042  135.7337  155.8968 C.2     1  UNL1        0.2707
     14 C         143.3942  136.3570  156.3410 C.3     1  UNL1        0.2898
     15 O         143.3783  137.6334  157.1288 O.3     1  UNL1       -0.4628
     16 C         142.0724  138.2864  157.4724 C.ar    1  UNL1        0.1716
     17 C         142.0564  139.5628  158.2602 C.ar    1  UNL1        0.1365
     18 N         140.7504  140.2157  158.6038 N.ar    1  UNL1       -0.2435
     19 C         139.4604  139.5924  158.1597 C.ar    1  UNL1        0.0764
     20 C         139.4764  138.3160  157.3719 C.ar    1  UNL1        0.0339
     21 C         140.7824  137.6630  157.0283 C.ar    1  UNL1        0.0877
     22 N         140.7982  136.3867  156.2405 N.am    1  UNL1       -0.2784
     23 H         139.9516  135.9776  155.9490 H       1  UNL1        0.1551
     24 C         140.5272  138.9970  164.8327 C.3     1  UNL1        0.0604
     25 C         139.8955  139.3028  166.1584 C.3     1  UNL1        0.1335
     26 O         138.8585  138.3139  165.7151 O.3     1  UNL1       -0.3806
     27 C         139.0471  139.4019  167.3915 C.3     1  UNL1        0.1402
     28 N         139.6919  140.3882  168.3197 N.ar    1  UNL1       -0.2915
     29 C         139.3046  140.8874  169.6801 C.ar    1  UNL1        0.2611
     30 O         138.0577  140.3770  170.3395 O.2     1  UNL1       -0.2670
     31 C         140.1643  141.8970  170.3812 C.ar    1  UNL1        0.0623
     32 C         141.4112  142.4074  169.7219 C.ar    1  UNL1        0.0254
     33 C         141.7984  141.9082  168.3615 C.ar    1  UNL1        0.0972
     34 N         142.9718  142.2373  167.4754 N.ar    1  UNL1       -0.2400
     35 C         143.2298  141.6491  166.1199 C.ar    1  UNL1        0.1282
     36 C         142.2762  140.6443  165.5445 C.ar    1  UNL1        0.1588
     37 F         142.5341  140.0561  164.1890 F       1  UNL1       -0.2027
     38 C         141.0646  140.2278  166.3247 C.ar    1  UNL1        0.0500
     39 C         140.9388  140.8986  167.6604 C.ar    1  UNL1        0.0806
     40 H         138.1813  138.2249  166.4038 H       1  UNL1        0.2108
@<TRIPOS>BOND
     1    12    13    2
     2    13    14    1
     3    14    15    1
     4    15    16    1
     5    16    17   ar
     6    17    18   ar
     7    18    19   ar
     8    19    11    1
     9    11     9    1
    10     9     1    1
    11     1     2    1
    12     2     3    1
    13     3     4    1
    14     4    24    1
    15    24    25    1
    16    25    26    1
    17    25    27    1
    18    27    28    1
    19    28    29   ar
    20    29    30    2
    21    29    31   ar
    22    31    32   ar
    23    32    33   ar
    24    33    34   ar
    25    34    35   ar
    26    35    36   ar
    27    36    37    1
    28    36    38   ar
    29    38    39   ar
    30     4     5    1
    31     5     6    1
    32     4     7    1
    33     7     8    1
    34    19    20   ar
    35    20    21   ar
    36    21    22    1
    37    22    13   am
    38    21    16   ar
    39     6     1    1
    40     8     1    1
    41    38    25    1
    42    39    28   ar
    43    39    33   ar
    44     9    10    1
    45    26    40    1
    46    22    23    1
@<TRIPOS>MOLECULE
*****
 40 46 0 0 0
SMALL
GASTEIGER

@<TRIPOS>ATOM
      1 C         138.6403  141.5931  163.8274 C.3     1  UNL1        0.0700
      2 C         139.2320  142.8266  164.4426 C.3     1  UNL1        0.0193
      3 C         140.1246  143.7162  163.6290 C.3     1  UNL1        0.0287
      4 C         140.4255  143.3723  162.2002 C.3     1  UNL1        0.0955
      5 C         139.8338  142.1389  161.5851 C.3     1  UNL1        0.0287
      6 C         138.9412  141.2493  162.3987 C.3     1  UNL1        0.0193
      7 O         139.9308  142.8543  162.6063 O.3     1  UNL1       -0.3571
      8 C         139.1237  142.0499  163.3419 C.3     1  UNL1        0.1562
      9 N         137.7477  140.7035  164.6410 N.3     1  UNL1       -0.2926
     10 H         137.3413  141.2849  165.3738 H       1  UNL1        0.1236
     11 C         138.3129  139.4888  165.3155 C.3     1  UNL1        0.1152
     12 O         141.5057  141.9185  171.9979 O.2     1  UNL1       -0.2707
     13 C         141.6364  141.2369  170.6680 C.2     1  UNL1        0.2707
     14 C         142.9619  140.6837  170.2359 C.3     1  UNL1        0.2898
     15 O         143.0926  140.0021  168.9060 O.3     1  UNL1       -0.4628
     16 C         141.8977  139.8738  168.0084 C.ar    1  UNL1        0.1716
     17 C         142.0283  139.1922  166.6786 C.ar    1  UNL1        0.1365
     18 N         140.8334  139.0639  165.7810 N.ar    1  UNL1       -0.2435
     19 C         139.5078  139.6171  166.2132 C.ar    1  UNL1        0.0764
     20 C         139.3772  140.2987  167.5430 C.ar    1  UNL1        0.0339
     21 C         140.5721  140.4270  168.4406 C.ar    1  UNL1        0.0877
     22 N         140.4414  141.1086  169.7704 N.am    1  UNL1       -0.2784
     23 H         139.5714  141.4717  170.0540 H       1  UNL1        0.1551
     24 C         141.3180  144.2620  161.3867 C.3     1  UNL1        0.0604
     25 C         140.7779  144.9588  160.1732 C.3     1  UNL1        0.1335
     26 O         139.8098  145.5646  161.1458 O.3     1  UNL1       -0.3806
     27 C         140.0353  145.7823  159.1630 C.3     1  UNL1        0.1402
     28 N         140.6574  145.5397  157.8197 N.ar    1  UNL1       -0.2915
     29 C         140.3432  146.0795  156.4560 C.ar    1  UNL1        0.2611
     30 O         139.2162  147.0529  156.2759 O.2     1  UNL1       -0.2670
     31 C         141.1559  145.6458  155.2722 C.ar    1  UNL1        0.0623
     32 C         142.2829  144.6724  155.4523 C.ar    1  UNL1        0.0254
     33 C         142.5971  144.1327  156.8160 C.ar    1  UNL1        0.0972
     34 N         143.6495  143.1621  157.2861 N.ar    1  UNL1       -0.2400
     35 C         143.8449  142.7103  158.7030 C.ar    1  UNL1        0.1282
     36 C         142.9495  143.2329  159.7871 C.ar    1  UNL1        0.1588
     37 F         143.1450  142.7810  161.2040 F       1  UNL1       -0.2027
     38 C         141.8588  144.2073  159.4543 C.ar    1  UNL1        0.0500
     39 C         141.7843  144.5664  157.9998 C.ar    1  UNL1        0.0806
     40 H         139.2080  146.1612  160.6738 H       1  UNL1        0.2108
@<TRIPOS>BOND
     1    12    13    2
     2    13    14    1
     3    14    15    1
     4    15    16    1
     5    16    17   ar
     6    17    18   ar
     7    18    19   ar
     8    19    11    1
     9    11     9    1
    10     9     1    1
    11     1     2    1
    12     2     3    1
    13     3     4    1
    14     4    24    1
    15    24    25    1
    16    25    26    1
    17    25    27    1
    18    27    28    1
    19    28    29   ar
    20    29    30    2
    21    29    31   ar
    22    31    32   ar
    23    32    33   ar
    24    33    34   ar
    25    34    35   ar
    26    35    36   ar
    27    36    37    1
    28    36    38   ar
    29    38    39   ar
    30     4     5    1
    31     5     6    1
    32     4     7    1
    33     7     8    1
    34    19    20   ar
    35    20    21   ar
    36    21    22    1
    37    22    13   am
    38    21    16   ar
    39     6     1    1
    40     8     1    1
    41    38    25    1
    42    39    28   ar
    43    39    33   ar
    44     9    10    1
    45    26    40    1
    46    22    23    1
@<TRIPOS>MOLECULE
*****
 40 46 0 0 0
SMALL
GASTEIGER

@<TRIPOS>ATOM
      1 C         142.6984  137.8309  158.4381 C.3     1  UNL1        0.0700
      2 C         141.7475  138.9905  158.4739 C.3     1  UNL1        0.0193
      3 C         141.2369  139.5013  159.7886 C.3     1  UNL1        0.0287
      4 C         141.6770  138.8525  161.0675 C.3     1  UNL1        0.0955
      5 C         142.6279  137.6929  161.0316 C.3     1  UNL1        0.0287
      6 C         143.1385  137.1822  159.7169 C.3     1  UNL1        0.0193
      7 O         141.9838  138.5375  160.3713 O.3     1  UNL1       -0.3571
      8 C         142.4456  138.0757  159.1826 C.3     1  UNL1        0.1562
      9 N         143.2090  137.3201  157.1235 N.3     1  UNL1       -0.2926
     10 H         143.5765  138.1257  156.6172 H       1  UNL1        0.1236
     11 C         142.2821  136.6053  156.1855 C.3     1  UNL1        0.1152
     12 O         145.0827  129.7565  158.6356 O.2     1  UNL1       -0.2707
     13 C         144.1421  130.5403  157.7689 C.2     1  UNL1        0.2707
     14 C         143.1946  129.8249  156.8523 C.3     1  UNL1        0.2898
     15 O         142.2540  130.6086  155.9856 O.3     1  UNL1       -0.4628
     16 C         142.2610  132.1078  156.0356 C.ar    1  UNL1        0.1716
     17 C         141.3205  132.8915  155.1689 C.ar    1  UNL1        0.1365
     18 N         141.3276  134.3907  155.2189 N.ar    1  UNL1       -0.2435
     19 C         142.2751  135.1061  156.1356 C.ar    1  UNL1        0.0764
     20 C         143.2157  134.3223  157.0022 C.ar    1  UNL1        0.0339
     21 C         143.2086  132.8232  156.9522 C.ar    1  UNL1        0.0877
     22 N         144.1491  132.0395  157.8189 N.am    1  UNL1       -0.2784
     23 H         144.7711  132.5091  158.4206 H       1  UNL1        0.1551
     24 C         141.1664  139.3633  162.3821 C.3     1  UNL1        0.0604
     25 C         141.4256  140.7843  162.7864 C.3     1  UNL1        0.1335
     26 O         142.8679  140.3868  162.6773 O.3     1  UNL1       -0.3806
     27 C         141.9864  142.1222  163.1680 C.3     1  UNL1        0.1402
     28 N         140.8366  143.0497  163.4284 N.ar    1  UNL1       -0.2915
     29 C         140.7830  144.4917  163.8379 C.ar    1  UNL1        0.2611
     30 O         142.0544  145.2564  164.0584 O.2     1  UNL1       -0.2670
     31 C         139.4581  145.1689  164.0268 C.ar    1  UNL1        0.0623
     32 C         138.1866  144.4042  163.8062 C.ar    1  UNL1        0.0254
     33 C         138.2402  142.9622  163.3967 C.ar    1  UNL1        0.0972
     34 N         137.1468  141.9656  163.1108 N.ar    1  UNL1       -0.2400
     35 C         137.3567  140.5368  162.7054 C.ar    1  UNL1        0.1282
     36 C         138.7480  139.9964  162.5556 C.ar    1  UNL1        0.1588
     37 F         138.9579  138.5676  162.1503 F       1  UNL1       -0.2027
     38 C         139.9292  140.8849  162.8111 C.ar    1  UNL1        0.0500
     39 C         139.5651  142.2849  163.2078 C.ar    1  UNL1        0.0806
     40 H         143.4301  141.1467  162.8946 H       1  UNL1        0.2108
@<TRIPOS>BOND
     1    12    13    2
     2    13    14    1
     3    14    15    1
     4    15    16    1
     5    16    17   ar
     6    17    18   ar
     7    18    19   ar
     8    19    11    1
     9    11     9    1
    10     9     1    1
    11     1     2    1
    12     2     3    1
    13     3     4    1
    14     4    24    1
    15    24    25    1
    16    25    26    1
    17    25    27    1
    18    27    28    1
    19    28    29   ar
    20    29    30    2
    21    29    31   ar
    22    31    32   ar
    23    32    33   ar
    24    33    34   ar
    25    34    35   ar
    26    35    36   ar
    27    36    37    1
    28    36    38   ar
    29    38    39   ar
    30     4     5    1
    31     5     6    1
    32     4     7    1
    33     7     8    1
    34    19    20   ar
    35    20    21   ar
    36    21    22    1
    37    22    13   am
    38    21    16   ar
    39     6     1    1
    40     8     1    1
    41    38    25    1
    42    39    28   ar
    43    39    33   ar
    44     9    10    1
    45    26    40    1
    46    22    23    1
@<TRIPOS>MOLECULE
*****
 40 46 0 0 0
SMALL
GASTEIGER

@<TRIPOS>ATOM
      1 C         138.1509  140.2238  160.9925 C.3     1  UNL1        0.0700
      2 C         138.5735  138.7846  160.9828 C.3     1  UNL1        0.0193
      3 C         138.9436  138.1029  162.2667 C.3     1  UNL1        0.0287
      4 C         138.8912  138.8606  163.5603 C.3     1  UNL1        0.0955
      5 C         138.4686  140.2998  163.5700 C.3     1  UNL1        0.0287
      6 C         138.0985  140.9814  162.2860 C.3     1  UNL1        0.0193
      7 O         138.6792  139.2767  162.8822 O.3     1  UNL1       -0.3571
      8 C         138.3445  139.8930  161.7213 C.3     1  UNL1        0.1562
      9 N         137.7808  140.9055  159.7086 N.3     1  UNL1       -0.2926
     10 H         137.4664  140.1765  159.0681 H       1  UNL1        0.1236
     11 C         138.8017  141.7196  158.9704 C.3     1  UNL1        0.1152
     12 O         145.7706  141.7963  162.4603 O.2     1  UNL1       -0.2707
     13 C         144.5123  142.5058  162.0560 C.2     1  UNL1        0.2707
     14 C         144.3188  143.9502  162.4109 C.3     1  UNL1        0.2898
     15 O         143.0605  144.6598  162.0066 O.3     1  UNL1       -0.4628
     16 C         141.9958  143.9247  161.2476 C.ar    1  UNL1        0.1716
     17 C         140.7375  144.6341  160.8433 C.ar    1  UNL1        0.1365
     18 N         139.6729  143.8991  160.0843 N.ar    1  UNL1       -0.2435
     19 C         139.8665  142.4546  159.7295 C.ar    1  UNL1        0.0764
     20 C         141.1247  141.7451  160.1337 C.ar    1  UNL1        0.0339
     21 C         142.1894  142.4802  160.8928 C.ar    1  UNL1        0.0877
     22 N         143.4476  141.7707  161.2970 N.am    1  UNL1       -0.2784
     23 H         143.5747  140.8226  161.0641 H       1  UNL1        0.1551
     24 C         139.2613  138.1789  164.8442 C.3     1  UNL1        0.0604
     25 C         139.1307  138.9111  166.1468 C.3     1  UNL1        0.1335
     26 O         137.6607  138.8458  165.8557 O.3     1  UNL1       -0.3806
     27 C         138.6928  139.6296  167.3886 C.3     1  UNL1        0.1402
     28 N         139.9195  139.9859  168.1750 N.ar    1  UNL1       -0.2915
     29 C         140.1019  140.6997  169.4815 C.ar    1  UNL1        0.2611
     30 O         138.9059  141.1981  170.2373 O.2     1  UNL1       -0.2670
     31 C         141.4804  140.9152  170.0323 C.ar    1  UNL1        0.0623
     32 C         142.6764  140.4169  169.2765 C.ar    1  UNL1        0.0254
     33 C         142.4939  139.7031  167.9699 C.ar    1  UNL1        0.0972
     34 N         143.4922  139.1057  167.0123 N.ar    1  UNL1       -0.2400
     35 C         143.1553  138.4128  165.7253 C.ar    1  UNL1        0.1282
     36 C         141.7233  138.2716  165.3020 C.ar    1  UNL1        0.1588
     37 F         141.3864  137.5788  164.0150 F       1  UNL1       -0.2027
     38 C         140.6280  138.8233  166.1657 C.ar    1  UNL1        0.0500
     39 C         141.1155  139.4876  167.4192 C.ar    1  UNL1        0.0806
     40 H         137.1696  139.2764  166.5728 H       1  UNL1        0.2108
@<TRIPOS>BOND
     1    12    13    2
     2    13    14    1
     3    14    15    1
     4    15    16    1
     5    16    17   ar
     6    17    18   ar
     7    18    19   ar
     8    19    11    1
     9    11     9    1
    10     9     1    1
    11     1     2    1
    12     2     3    1
    13     3     4    1
    14     4    24    1
    15    24    25    1
    16    25    26    1
    17    25    27    1
    18    27    28    1
    19    28    29   ar
    20    29    30    2
    21    29    31   ar
    22    31    32   ar
    23    32    33   ar
    24    33    34   ar
    25    34    35   ar
    26    35    36   ar
    27    36    37    1
    28    36    38   ar
    29    38    39   ar
    30     4     5    1
    31     5     6    1
    32     4     7    1
    33     7     8    1
    34    19    20   ar
    35    20    21   ar
    36    21    22    1
    37    22    13   am
    38    21    16   ar
    39     6     1    1
    40     8     1    1
    41    38    25    1
    42    39    28   ar
    43    39    33   ar
    44     9    10    1
    45    26    40    1
    46    22    23    1
@<TRIPOS>MOLECULE
*****
 40 46 0 0 0
SMALL
GASTEIGER

@<TRIPOS>ATOM
      1 C         142.1203  138.9149  159.6577 C.3     1  UNL1        0.0700
      2 C         142.9524  137.9554  160.4557 C.3     1  UNL1        0.0193
      3 C         142.6570  137.7362  161.9099 C.3     1  UNL1        0.0287
      4 C         141.5293  138.4765  162.5661 C.3     1  UNL1        0.0955
      5 C         140.6971  139.4359  161.7681 C.3     1  UNL1        0.0287
      6 C         140.9927  139.6552  160.3138 C.3     1  UNL1        0.0193
      7 O         141.6532  138.6296  161.7666 O.3     1  UNL1       -0.3571
      8 C         141.9203  138.8278  160.4518 C.3     1  UNL1        0.1562
      9 N         142.4157  139.1342  158.2035 N.3     1  UNL1       -0.2926
     10 H         142.5227  140.1402  158.0732 H       1  UNL1        0.1236
     11 C         141.4447  138.6634  157.1617 C.3     1  UNL1        0.1152
     12 O         145.4517  132.0195  156.4181 O.2     1  UNL1       -0.2707
     13 C         144.2747  132.8747  156.0523 C.2     1  UNL1        0.2707
     14 C         143.2567  132.3702  155.0731 C.3     1  UNL1        0.2898
     15 O         142.0798  133.2253  154.7073 O.3     1  UNL1       -0.4628
     16 C         141.9210  134.5848  155.3209 C.ar    1  UNL1        0.1716
     17 C         140.7442  135.4400  154.9552 C.ar    1  UNL1        0.1365
     18 N         140.5854  136.7995  155.5688 N.ar    1  UNL1       -0.2435
     19 C         141.6035  137.3039  156.5481 C.ar    1  UNL1        0.0764
     20 C         142.7804  136.4488  156.9138 C.ar    1  UNL1        0.0339
     21 C         142.9391  135.0892  156.3002 C.ar    1  UNL1        0.0877
     22 N         144.1160  134.2342  156.6659 N.am    1  UNL1       -0.2784
     23 H         144.7842  134.5652  157.3087 H       1  UNL1        0.1551
     24 C         141.2339  138.2572  164.0203 C.3     1  UNL1        0.0604
     25 C         141.7630  139.2153  165.0459 C.3     1  UNL1        0.1335
     26 O         142.9739  139.2482  164.1612 O.3     1  UNL1       -0.3806
     27 C         142.5453  140.1804  165.8866 C.3     1  UNL1        0.1402
     28 N         141.7074  140.5436  167.0765 N.ar    1  UNL1       -0.2915
     29 C         141.9603  141.4530  168.2422 C.ar    1  UNL1        0.2611
     30 O         143.2605  142.1935  168.3475 O.2     1  UNL1       -0.2670
     31 C         140.9130  141.6219  169.3027 C.ar    1  UNL1        0.0623
     32 C         139.6128  140.8813  169.1974 C.ar    1  UNL1        0.0254
     33 C         139.3599  139.9719  168.0317 C.ar    1  UNL1        0.0972
     34 N         138.1710  139.1189  167.6722 N.ar    1  UNL1       -0.2400
     35 C         138.0611  138.2490  166.4551 C.ar    1  UNL1        0.1282
     36 C         139.1964  138.1806  165.4772 C.ar    1  UNL1        0.1588
     37 F         139.0866  137.3107  164.2602 F       1  UNL1       -0.2027
     38 C         140.4416  138.9822  165.7162 C.ar    1  UNL1        0.0500
     39 C         140.4072  139.8031  166.9712 C.ar    1  UNL1        0.0806
     40 H         143.6369  139.8448  164.5425 H       1  UNL1        0.2108
@<TRIPOS>BOND
     1    12    13    2
     2    13    14    1
     3    14    15    1
     4    15    16    1
     5    16    17   ar
     6    17    18   ar
     7    18    19   ar
     8    19    11    1
     9    11     9    1
    10     9     1    1
    11     1     2    1
    12     2     3    1
    13     3     4    1
    14     4    24    1
    15    24    25    1
    16    25    26    1
    17    25    27    1
    18    27    28    1
    19    28    29   ar
    20    29    30    2
    21    29    31   ar
    22    31    32   ar
    23    32    33   ar
    24    33    34   ar
    25    34    35   ar
    26    35    36   ar
    27    36    37    1
    28    36    38   ar
    29    38    39   ar
    30     4     5    1
    31     5     6    1
    32     4     7    1
    33     7     8    1
    34    19    20   ar
    35    20    21   ar
    36    21    22    1
    37    22    13   am
    38    21    16   ar
    39     6     1    1
    40     8     1    1
    41    38    25    1
    42    39    28   ar
    43    39    33   ar
    44     9    10    1
    45    26    40    1
    46    22    23    1
