@<TRIPOS>MOLECULE
*****
 29 31 0 0 0
SMALL
GASTEIGER

@<TRIPOS>ATOM
      1 C         139.8110  140.4569  167.9848 C.3     1  UNL1        0.1068
      2 O         139.4423  140.0275  169.3740 O.3     1  UNL1       -0.3827
      3 C         140.4999  141.1902  166.8724 C.3     1  UNL1        0.0328
      4 C         140.1388  140.8994  165.4458 C.3     1  UNL1        0.0223
      5 C         139.0887  139.8753  165.1318 C.3     1  UNL1        0.0717
      6 C         138.3998  139.1420  166.2442 C.3     1  UNL1        0.0223
      7 C         138.7609  139.4328  167.6708 C.3     1  UNL1        0.0328
      8 H         139.9732  140.5227  170.0172 H       1  UNL1        0.2107
      9 C         142.5491  139.4751  168.7188 C.3     1  UNL1        0.0309
     10 C         142.1020  140.8410  169.1483 C.ar    1  UNL1       -0.0206
     11 C         143.0240  141.7159  169.9448 C.ar    1  UNL1        0.0321
     12 C         142.5769  143.0818  170.3743 C.ar    1  UNL1        0.1333
     13 O         143.4989  143.9568  171.1709 O.3     1  UNL1       -0.5055
     14 C         141.2079  143.5727  170.0074 C.ar    1  UNL1        0.0363
     15 C         140.2859  142.6978  169.2109 C.ar    1  UNL1        0.0008
     16 C         140.7330  141.3319  168.7814 C.ar    1  UNL1       -0.0020
     17 H         144.3541  143.6501  171.4001 H       1  UNL1        0.2922
     18 N         138.7276  139.5846  163.7052 N.am    1  UNL1       -0.3060
     19 C         139.2679  138.3592  163.0296 C.2     1  UNL1        0.2228
     20 O         140.1693  137.4245  163.7806 O.2     1  UNL1       -0.2751
     21 H         138.1360  140.1980  163.2124 H       1  UNL1        0.1494
     22 C         138.9068  138.0683  161.6031 C.3     1  UNL1        0.0897
     23 C         139.8509  138.4425  160.4992 C.3     1  UNL1        0.0359
     24 C         141.2621  138.8364  160.8203 C.ar    1  UNL1       -0.0217
     25 C         141.6136  140.2829  161.0053 C.ar    1  UNL1       -0.0043
     26 C         143.0248  140.6768  161.3265 C.ar    1  UNL1       -0.0003
     27 C         144.0847  139.6240  161.4627 C.ar    1  UNL1       -0.0000
     28 C         143.7333  138.1776  161.2777 C.ar    1  UNL1       -0.0003
     29 C         142.3220  137.7837  160.9565 C.ar    1  UNL1       -0.0043
@<TRIPOS>BOND
     1     9    10    1
     2    10    11   ar
     3    11    12   ar
     4    12    13    1
     5    12    14   ar
     6    14    15   ar
     7    15    16   ar
     8    16     1    1
     9     1     2    1
    10     1     3    1
    11     3     4    1
    12     4     5    1
    13     5    18    1
    14    18    19   am
    15    19    20    2
    16    19    22    1
    17    22    23    1
    18    23    24    1
    19    24    25   ar
    20    25    26   ar
    21    26    27   ar
    22    27    28   ar
    23    28    29   ar
    24     5     6    1
    25     6     7    1
    26    16    10   ar
    27     7     1    1
    28    29    24   ar
    29    13    17    1
    30     2     8    1
    31    18    21    1
@<TRIPOS>MOLECULE
*****
 29 31 0 0 0
SMALL
GASTEIGER

@<TRIPOS>ATOM
      1 C         139.7315  140.4329  167.8899 C.3     1  UNL1        0.1068
      2 O         139.7278  139.7150  169.2070 O.3     1  UNL1       -0.3827
      3 C         140.0889  141.4331  166.8309 C.3     1  UNL1        0.0328
      4 C         139.4265  141.3710  165.4865 C.3     1  UNL1        0.0223
      5 C         138.4067  140.3086  165.2012 C.3     1  UNL1        0.0717
      6 C         138.0493  139.3084  166.2603 C.3     1  UNL1        0.0223
      7 C         138.7116  139.3705  167.6047 C.3     1  UNL1        0.0328
      8 H         140.3579  140.1408  169.8091 H       1  UNL1        0.2107
      9 C         142.5713  139.4820  168.0660 C.3     1  UNL1        0.0309
     10 C         142.1699  140.7705  168.7207 C.ar    1  UNL1       -0.0206
     11 C         143.1884  141.5835  169.4634 C.ar    1  UNL1        0.0321
     12 C         142.7869  142.8720  170.1181 C.ar    1  UNL1        0.1333
     13 O         143.8055  143.6851  170.8608 O.3     1  UNL1       -0.5055
     14 C         141.3671  143.3475  170.0300 C.ar    1  UNL1        0.0363
     15 C         140.3486  142.5344  169.2874 C.ar    1  UNL1        0.0008
     16 C         140.7500  141.2459  168.6327 C.ar    1  UNL1       -0.0020
     17 H         144.6925  143.3881  170.9158 H       1  UNL1        0.2922
     18 N         137.7443  140.2466  163.8568 N.am    1  UNL1       -0.3060
     19 C         138.2771  139.3250  162.8000 C.2     1  UNL1        0.2228
     20 O         139.4724  138.4655  163.0876 O.2     1  UNL1       -0.2751
     21 H         136.9598  140.8107  163.6680 H       1  UNL1        0.1494
     22 C         137.6148  139.2629  161.4556 C.3     1  UNL1        0.0897
     23 C         137.9461  140.2843  160.4084 C.3     1  UNL1        0.0359
     24 C         138.8869  141.4081  160.7276 C.ar    1  UNL1       -0.0217
     25 C         140.3554  141.2550  160.4631 C.ar    1  UNL1       -0.0043
     26 C         141.2962  142.3788  160.7824 C.ar    1  UNL1       -0.0003
     27 C         140.7684  143.6557  161.3663 C.ar    1  UNL1       -0.0000
     28 C         139.2999  143.8088  161.6308 C.ar    1  UNL1       -0.0003
     29 C         138.3591  142.6851  161.3115 C.ar    1  UNL1       -0.0043
@<TRIPOS>BOND
     1     9    10    1
     2    10    11   ar
     3    11    12   ar
     4    12    13    1
     5    12    14   ar
     6    14    15   ar
     7    15    16   ar
     8    16     1    1
     9     1     2    1
    10     1     3    1
    11     3     4    1
    12     4     5    1
    13     5    18    1
    14    18    19   am
    15    19    20    2
    16    19    22    1
    17    22    23    1
    18    23    24    1
    19    24    25   ar
    20    25    26   ar
    21    26    27   ar
    22    27    28   ar
    23    28    29   ar
    24     5     6    1
    25     6     7    1
    26    16    10   ar
    27     7     1    1
    28    29    24   ar
    29    13    17    1
    30     2     8    1
    31    18    21    1
@<TRIPOS>MOLECULE
*****
 29 31 0 0 0
SMALL
GASTEIGER

@<TRIPOS>ATOM
      1 C         142.2579  139.7930  167.7692 C.3     1  UNL1        0.1068
      2 O         142.7354  139.2901  169.0993 O.3     1  UNL1       -0.3827
      3 C         141.4984  140.5976  166.7565 C.3     1  UNL1        0.0328
      4 C         141.7169  140.3587  165.2919 C.3     1  UNL1        0.0223
      5 C         142.6951  139.3151  164.8400 C.3     1  UNL1        0.0717
      6 C         143.4546  138.5105  165.8526 C.3     1  UNL1        0.0223
      7 C         143.2361  138.7494  167.3173 C.3     1  UNL1        0.0328
      8 H         142.2841  139.7737  169.8088 H       1  UNL1        0.2107
      9 C         143.3878  142.3853  168.7708 C.3     1  UNL1        0.0309
     10 C         142.0105  141.9581  169.1839 C.ar    1  UNL1       -0.0206
     11 C         141.1982  142.8269  170.0977 C.ar    1  UNL1        0.0321
     12 C         139.8210  142.3997  170.5108 C.ar    1  UNL1        0.1333
     13 O         139.0087  143.2686  171.4247 O.3     1  UNL1       -0.5055
     14 C         139.2561  141.1035  170.0100 C.ar    1  UNL1        0.0363
     15 C         140.0684  140.2347  169.0962 C.ar    1  UNL1        0.0008
     16 C         141.4456  140.6619  168.6831 C.ar    1  UNL1       -0.0020
     17 H         139.3616  144.0783  171.7375 H       1  UNL1        0.2922
     18 N         142.9136  139.0762  163.3753 N.am    1  UNL1       -0.3060
     19 C         142.1987  137.9535  162.6837 C.2     1  UNL1        0.2228
     20 O         141.2651  137.0697  163.4567 O.2     1  UNL1       -0.2751
     21 H         143.5263  139.6562  162.8680 H       1  UNL1        0.1494
     22 C         142.4171  137.7146  161.2191 C.3     1  UNL1        0.0897
     23 C         141.4978  138.3391  160.2118 C.3     1  UNL1        0.0359
     24 C         140.2404  139.0201  160.6647 C.ar    1  UNL1       -0.0217
     25 C         139.0089  138.2113  160.9463 C.ar    1  UNL1       -0.0043
     26 C         137.7515  138.8922  161.3992 C.ar    1  UNL1       -0.0003
     27 C         137.7256  140.3822  161.5706 C.ar    1  UNL1       -0.0000
     28 C         138.9570  141.1911  161.2891 C.ar    1  UNL1       -0.0003
     29 C         140.2144  140.5101  160.8361 C.ar    1  UNL1       -0.0043
@<TRIPOS>BOND
     1     9    10    1
     2    10    11   ar
     3    11    12   ar
     4    12    13    1
     5    12    14   ar
     6    14    15   ar
     7    15    16   ar
     8    16     1    1
     9     1     2    1
    10     1     3    1
    11     3     4    1
    12     4     5    1
    13     5    18    1
    14    18    19   am
    15    19    20    2
    16    19    22    1
    17    22    23    1
    18    23    24    1
    19    24    25   ar
    20    25    26   ar
    21    26    27   ar
    22    27    28   ar
    23    28    29   ar
    24     5     6    1
    25     6     7    1
    26    16    10   ar
    27     7     1    1
    28    29    24   ar
    29    13    17    1
    30     2     8    1
    31    18    21    1
@<TRIPOS>MOLECULE
*****
 29 31 0 0 0
SMALL
GASTEIGER

@<TRIPOS>ATOM
      1 C         139.7207  140.4243  167.9344 C.3     1  UNL1        0.1068
      2 O         139.5987  139.7938  169.2900 O.3     1  UNL1       -0.3827
      3 C         140.1813  141.3474  166.8455 C.3     1  UNL1        0.0328
      4 C         139.6244  141.2091  165.4596 C.3     1  UNL1        0.0223
      5 C         138.6069  140.1477  165.1626 C.3     1  UNL1        0.0717
      6 C         138.1463  139.2246  166.2515 C.3     1  UNL1        0.0223
      7 C         138.7032  139.3629  167.6374 C.3     1  UNL1        0.0328
      8 H         140.1892  140.2472  169.9118 H       1  UNL1        0.2107
      9 C         142.5470  139.4882  168.3025 C.3     1  UNL1        0.0309
     10 C         142.1090  140.7987  168.8862 C.ar    1  UNL1       -0.0206
     11 C         143.0841  141.6411  169.6540 C.ar    1  UNL1        0.0321
     12 C         142.6460  142.9516  170.2378 C.ar    1  UNL1        0.1333
     13 O         143.6211  143.7940  171.0056 O.3     1  UNL1       -0.5055
     14 C         141.2328  143.4196  170.0538 C.ar    1  UNL1        0.0363
     15 C         140.2578  142.5772  169.2860 C.ar    1  UNL1        0.0008
     16 C         140.6958  141.2667  168.7022 C.ar    1  UNL1       -0.0020
     17 H         144.5039  143.5016  171.1206 H       1  UNL1        0.2922
     18 N         138.0500  140.0094  163.7767 N.am    1  UNL1       -0.3060
     19 C         138.4150  138.8214  162.9369 C.2     1  UNL1        0.2228
     20 O         139.3369  137.7716  163.4829 O.2     1  UNL1       -0.2751
     21 H         137.4450  140.6984  163.4183 H       1  UNL1        0.1494
     22 C         137.8582  138.6830  161.5509 C.3     1  UNL1        0.0897
     23 C         137.7663  139.8834  160.6562 C.3     1  UNL1        0.0359
     24 C         138.4114  139.8609  159.3022 C.ar    1  UNL1       -0.0217
     25 C         137.9511  140.8104  158.2362 C.ar    1  UNL1       -0.0043
     26 C         138.5962  140.7878  156.8822 C.ar    1  UNL1       -0.0003
     27 C         139.7017  139.8156  156.5943 C.ar    1  UNL1       -0.0000
     28 C         140.1619  138.8661  157.6603 C.ar    1  UNL1       -0.0003
     29 C         139.5168  138.8887  159.0143 C.ar    1  UNL1       -0.0043
@<TRIPOS>BOND
     1     9    10    1
     2    10    11   ar
     3    11    12   ar
     4    12    13    1
     5    12    14   ar
     6    14    15   ar
     7    15    16   ar
     8    16     1    1
     9     1     2    1
    10     1     3    1
    11     3     4    1
    12     4     5    1
    13     5    18    1
    14    18    19   am
    15    19    20    2
    16    19    22    1
    17    22    23    1
    18    23    24    1
    19    24    25   ar
    20    25    26   ar
    21    26    27   ar
    22    27    28   ar
    23    28    29   ar
    24     5     6    1
    25     6     7    1
    26    16    10   ar
    27     7     1    1
    28    29    24   ar
    29    13    17    1
    30     2     8    1
    31    18    21    1
@<TRIPOS>MOLECULE
*****
 29 31 0 0 0
SMALL
GASTEIGER

@<TRIPOS>ATOM
      1 C         142.6599  139.7924  167.4930 C.3     1  UNL1        0.1068
      2 O         142.9232  138.6995  168.4861 O.3     1  UNL1       -0.3827
      3 C         142.1974  141.1031  166.9292 C.3     1  UNL1        0.0328
      4 C         142.3998  141.4070  165.4743 C.3     1  UNL1        0.0223
      5 C         143.0648  140.4000  164.5832 C.3     1  UNL1        0.0717
      6 C         143.5272  139.0892  165.1471 C.3     1  UNL1        0.0223
      7 C         143.3248  138.7854  166.6020 C.3     1  UNL1        0.0328
      8 H         142.5966  138.9698  169.3586 H       1  UNL1        0.2107
      9 C         139.6974  139.7441  167.9635 C.3     1  UNL1        0.0309
     10 C         140.6052  140.3956  168.9642 C.ar    1  UNL1       -0.0206
     11 C         140.0318  141.0230  170.2001 C.ar    1  UNL1        0.0321
     12 C         140.9396  141.6746  171.2008 C.ar    1  UNL1        0.1333
     13 O         140.3661  142.3020  172.4368 O.3     1  UNL1       -0.5055
     14 C         142.4208  141.6987  170.9656 C.ar    1  UNL1        0.0363
     15 C         142.9942  141.0713  169.7297 C.ar    1  UNL1        0.0008
     16 C         142.0864  140.4198  168.7290 C.ar    1  UNL1       -0.0020
     17 H         139.4408  142.2869  172.5837 H       1  UNL1        0.2922
     18 N         143.2672  140.7038  163.1284 N.am    1  UNL1       -0.3060
     19 C         144.5798  141.2518  162.6522 C.2     1  UNL1        0.2228
     20 O         145.6900  141.4960  163.6309 O.2     1  UNL1       -0.2751
     21 H         142.5385  140.5436  162.4860 H       1  UNL1        0.1494
     22 C         144.7823  141.5556  161.1973 C.3     1  UNL1        0.0897
     23 C         144.1810  142.7925  160.5986 C.3     1  UNL1        0.0359
     24 C         143.2488  143.6420  161.4106 C.ar    1  UNL1       -0.0217
     25 C         143.7452  144.3275  162.6489 C.ar    1  UNL1       -0.0043
     26 C         142.8130  145.1770  163.4609 C.ar    1  UNL1       -0.0003
     27 C         141.3842  145.3410  163.0344 C.ar    1  UNL1       -0.0000
     28 C         140.8878  144.6555  161.7960 C.ar    1  UNL1       -0.0003
     29 C         141.8200  143.8060  160.9841 C.ar    1  UNL1       -0.0043
@<TRIPOS>BOND
     1     9    10    1
     2    10    11   ar
     3    11    12   ar
     4    12    13    1
     5    12    14   ar
     6    14    15   ar
     7    15    16   ar
     8    16     1    1
     9     1     2    1
    10     1     3    1
    11     3     4    1
    12     4     5    1
    13     5    18    1
    14    18    19   am
    15    19    20    2
    16    19    22    1
    17    22    23    1
    18    23    24    1
    19    24    25   ar
    20    25    26   ar
    21    26    27   ar
    22    27    28   ar
    23    28    29   ar
    24     5     6    1
    25     6     7    1
    26    16    10   ar
    27     7     1    1
    28    29    24   ar
    29    13    17    1
    30     2     8    1
    31    18    21    1
@<TRIPOS>MOLECULE
*****
 29 31 0 0 0
SMALL
GASTEIGER

@<TRIPOS>ATOM
      1 C         142.0946  139.5766  166.8753 C.3     1  UNL1        0.1068
      2 O         143.2580  138.8906  167.5281 O.3     1  UNL1       -0.3827
      3 C         140.9361  140.5095  166.6814 C.3     1  UNL1        0.0328
      4 C         140.1678  140.4935  165.3932 C.3     1  UNL1        0.0223
      5 C         140.5580  139.5445  164.2990 C.3     1  UNL1        0.0717
      6 C         141.7165  138.6117  164.4929 C.3     1  UNL1        0.0223
      7 C         142.4848  138.6277  165.7811 C.3     1  UNL1        0.0328
      8 H         143.3922  139.2564  168.4163 H       1  UNL1        0.2107
      9 C         143.3527  142.2904  167.1057 C.3     1  UNL1        0.0309
     10 C         142.7375  141.6441  168.3115 C.ar    1  UNL1       -0.0206
     11 C         142.7513  142.3546  169.6324 C.ar    1  UNL1        0.0321
     12 C         142.1360  141.7084  170.8382 C.ar    1  UNL1        0.1333
     13 O         142.1499  142.4190  172.1591 O.3     1  UNL1       -0.5055
     14 C         141.5070  140.3515  170.7230 C.ar    1  UNL1        0.0363
     15 C         141.4932  139.6410  169.4021 C.ar    1  UNL1        0.0008
     16 C         142.1084  140.2873  168.1963 C.ar    1  UNL1       -0.0020
     17 H         142.5428  143.2666  172.2311 H       1  UNL1        0.2922
     18 N         139.7897  139.5285  163.0108 N.am    1  UNL1       -0.3060
     19 C         140.3862  140.1326  161.7742 C.2     1  UNL1        0.2228
     20 O         141.7511  140.7526  161.8257 O.2     1  UNL1       -0.2751
     21 H         138.8939  139.1216  162.9770 H       1  UNL1        0.1494
     22 C         139.6180  140.1166  160.4860 C.3     1  UNL1        0.0897
     23 C         138.8759  141.3414  160.0399 C.3     1  UNL1        0.0359
     24 C         138.8550  142.5638  160.9090 C.ar    1  UNL1       -0.0217
     25 C         139.8246  143.6802  160.6568 C.ar    1  UNL1       -0.0043
     26 C         139.8036  144.9025  161.5259 C.ar    1  UNL1       -0.0003
     27 C         138.8130  145.0085  162.6473 C.ar    1  UNL1       -0.0000
     28 C         137.8434  143.8922  162.8995 C.ar    1  UNL1       -0.0003
     29 C         137.8643  142.6698  162.0304 C.ar    1  UNL1       -0.0043
@<TRIPOS>BOND
     1     9    10    1
     2    10    11   ar
     3    11    12   ar
     4    12    13    1
     5    12    14   ar
     6    14    15   ar
     7    15    16   ar
     8    16     1    1
     9     1     2    1
    10     1     3    1
    11     3     4    1
    12     4     5    1
    13     5    18    1
    14    18    19   am
    15    19    20    2
    16    19    22    1
    17    22    23    1
    18    23    24    1
    19    24    25   ar
    20    25    26   ar
    21    26    27   ar
    22    27    28   ar
    23    28    29   ar
    24     5     6    1
    25     6     7    1
    26    16    10   ar
    27     7     1    1
    28    29    24   ar
    29    13    17    1
    30     2     8    1
    31    18    21    1
@<TRIPOS>MOLECULE
*****
 29 31 0 0 0
SMALL
GASTEIGER

@<TRIPOS>ATOM
      1 C         142.2472  139.7356  167.6932 C.3     1  UNL1        0.1068
      2 O         142.7611  139.2864  169.0289 O.3     1  UNL1       -0.3827
      3 C         141.4593  140.4988  166.6701 C.3     1  UNL1        0.0328
      4 C         141.6386  140.2018  165.2108 C.3     1  UNL1        0.0223
      5 C         142.6059  139.1415  164.7746 C.3     1  UNL1        0.0717
      6 C         143.3938  138.3783  165.7977 C.3     1  UNL1        0.0223
      7 C         143.2144  138.6753  167.2570 C.3     1  UNL1        0.0328
      8 H         142.3283  139.7977  169.7305 H       1  UNL1        0.2107
      9 C         143.3784  142.3886  168.5191 C.3     1  UNL1        0.0309
     10 C         142.0240  141.9664  169.0062 C.ar    1  UNL1       -0.0206
     11 C         141.2353  142.8706  169.9063 C.ar    1  UNL1        0.0321
     12 C         139.8809  142.4484  170.3935 C.ar    1  UNL1        0.1333
     13 O         139.0921  143.3527  171.2937 O.3     1  UNL1       -0.5055
     14 C         139.3153  141.1219  169.9806 C.ar    1  UNL1        0.0363
     15 C         140.1040  140.2177  169.0805 C.ar    1  UNL1        0.0008
     16 C         141.4584  140.6399  168.5933 C.ar    1  UNL1       -0.0020
     17 H         139.4455  144.1813  171.5516 H       1  UNL1        0.2922
     18 N         142.7853  138.8445  163.3153 N.am    1  UNL1       -0.3060
     19 C         143.9801  139.3786  162.5825 C.2     1  UNL1        0.2228
     20 O         144.9956  140.2099  163.3090 O.2     1  UNL1       -0.2751
     21 H         142.1187  138.2989  162.8385 H       1  UNL1        0.1494
     22 C         144.1595  139.0817  161.1232 C.3     1  UNL1        0.0897
     23 C         143.0909  138.3458  160.3706 C.3     1  UNL1        0.0359
     24 C         142.9858  138.4924  158.8815 C.ar    1  UNL1       -0.0217
     25 C         143.3128  139.8044  158.2320 C.ar    1  UNL1       -0.0043
     26 C         143.2078  139.9510  156.7429 C.ar    1  UNL1       -0.0003
     27 C         142.7757  138.7855  155.9032 C.ar    1  UNL1       -0.0000
     28 C         142.4487  137.4736  156.5527 C.ar    1  UNL1       -0.0003
     29 C         142.5537  137.3269  158.0418 C.ar    1  UNL1       -0.0043
@<TRIPOS>BOND
     1     9    10    1
     2    10    11   ar
     3    11    12   ar
     4    12    13    1
     5    12    14   ar
     6    14    15   ar
     7    15    16   ar
     8    16     1    1
     9     1     2    1
    10     1     3    1
    11     3     4    1
    12     4     5    1
    13     5    18    1
    14    18    19   am
    15    19    20    2
    16    19    22    1
    17    22    23    1
    18    23    24    1
    19    24    25   ar
    20    25    26   ar
    21    26    27   ar
    22    27    28   ar
    23    28    29   ar
    24     5     6    1
    25     6     7    1
    26    16    10   ar
    27     7     1    1
    28    29    24   ar
    29    13    17    1
    30     2     8    1
    31    18    21    1
@<TRIPOS>MOLECULE
*****
 29 31 0 0 0
SMALL
GASTEIGER

@<TRIPOS>ATOM
      1 C         142.7115  141.8849  167.0087 C.3     1  UNL1        0.1068
      2 O         143.4058  142.5716  168.1474 O.3     1  UNL1       -0.3827
      3 C         141.7707  140.9779  166.2725 C.3     1  UNL1        0.0328
      4 C         141.7810  140.9441  164.7729 C.3     1  UNL1        0.0223
      5 C         142.7321  141.8175  164.0095 C.3     1  UNL1        0.0717
      6 C         143.6729  142.7245  164.7457 C.3     1  UNL1        0.0223
      7 C         143.6627  142.7583  166.2453 C.3     1  UNL1        0.0328
      8 H         143.0412  142.2527  168.9878 H       1  UNL1        0.2107
      9 C         140.2246  143.1448  168.1170 C.3     1  UNL1        0.0309
     10 C         140.7581  141.8800  168.7217 C.ar    1  UNL1       -0.0206
     11 C         140.0482  141.2451  169.8805 C.ar    1  UNL1        0.0321
     12 C         140.5816  139.9803  170.4852 C.ar    1  UNL1        0.1333
     13 O         139.8716  139.3454  171.6440 O.3     1  UNL1       -0.5055
     14 C         141.8250  139.3504  169.9311 C.ar    1  UNL1        0.0363
     15 C         142.5350  139.9853  168.7722 C.ar    1  UNL1        0.0008
     16 C         142.0015  141.2501  168.1676 C.ar    1  UNL1       -0.0020
     17 H         139.0949  139.7389  171.9902 H       1  UNL1        0.2922
     18 N         142.7424  141.7837  162.5100 N.am    1  UNL1       -0.3060
     19 C         141.7257  142.5684  161.7351 C.2     1  UNL1        0.2228
     20 O         140.6987  143.3870  162.4599 O.2     1  UNL1       -0.2751
     21 H         143.4164  141.2464  162.0343 H       1  UNL1        0.1494
     22 C         141.7359  142.5347  160.2356 C.3     1  UNL1        0.0897
     23 C         140.9400  141.4954  159.5032 C.3     1  UNL1        0.0359
     24 C         140.1647  140.4659  160.2706 C.ar    1  UNL1       -0.0217
     25 C         140.8123  139.1666  160.6479 C.ar    1  UNL1       -0.0043
     26 C         140.0369  138.1370  161.4152 C.ar    1  UNL1       -0.0003
     27 C         138.6138  138.4069  161.8053 C.ar    1  UNL1       -0.0000
     28 C         137.9662  139.7062  161.4280 C.ar    1  UNL1       -0.0003
     29 C         138.7416  140.7357  160.6606 C.ar    1  UNL1       -0.0043
@<TRIPOS>BOND
     1     9    10    1
     2    10    11   ar
     3    11    12   ar
     4    12    13    1
     5    12    14   ar
     6    14    15   ar
     7    15    16   ar
     8    16     1    1
     9     1     2    1
    10     1     3    1
    11     3     4    1
    12     4     5    1
    13     5    18    1
    14    18    19   am
    15    19    20    2
    16    19    22    1
    17    22    23    1
    18    23    24    1
    19    24    25   ar
    20    25    26   ar
    21    26    27   ar
    22    27    28   ar
    23    28    29   ar
    24     5     6    1
    25     6     7    1
    26    16    10   ar
    27     7     1    1
    28    29    24   ar
    29    13    17    1
    30     2     8    1
    31    18    21    1
@<TRIPOS>MOLECULE
*****
 29 31 0 0 0
SMALL
GASTEIGER

@<TRIPOS>ATOM
      1 C         141.0660  145.0331  158.3453 C.3     1  UNL1        0.1068
      2 O         142.1949  146.0140  158.2296 O.3     1  UNL1       -0.3827
      3 C         139.8989  144.1750  157.9561 C.3     1  UNL1        0.0328
      4 C         139.2338  143.3041  158.9804 C.3     1  UNL1        0.0223
      5 C         139.7358  143.2912  160.3938 C.3     1  UNL1        0.0717
      6 C         140.9029  144.1493  160.7830 C.3     1  UNL1        0.0223
      7 C         141.5680  145.0203  159.7587 C.3     1  UNL1        0.0328
      8 H         142.2488  146.3388  157.3172 H       1  UNL1        0.2107
      9 C         142.7561  143.6021  156.3215 C.3     1  UNL1        0.0309
     10 C         141.8011  144.6712  155.8798 C.ar    1  UNL1       -0.0206
     11 C         141.6911  145.0247  154.4262 C.ar    1  UNL1        0.0321
     12 C         140.7361  146.0937  153.9845 C.ar    1  UNL1        0.1333
     13 O         140.6261  146.4473  152.5309 O.3     1  UNL1       -0.5055
     14 C         139.8910  146.8092  154.9964 C.ar    1  UNL1        0.0363
     15 C         140.0010  146.4557  156.4500 C.ar    1  UNL1        0.0008
     16 C         140.9560  145.3866  156.8916 C.ar    1  UNL1       -0.0020
     17 H         141.1540  146.0003  151.8988 H       1  UNL1        0.2922
     18 N         139.0707  142.4203  161.4181 N.am    1  UNL1       -0.3060
     19 C         138.1022  143.0175  162.3954 C.2     1  UNL1        0.2228
     20 O         137.7988  144.4858  162.3485 O.2     1  UNL1       -0.2751
     21 H         139.2699  141.4566  161.4488 H       1  UNL1        0.1494
     22 C         137.4371  142.1467  163.4196 C.3     1  UNL1        0.0897
     23 C         138.2174  141.6451  164.5984 C.3     1  UNL1        0.0359
     24 C         138.3838  140.1703  164.8152 C.ar    1  UNL1       -0.0217
     25 C         138.9421  139.3095  163.7210 C.ar    1  UNL1       -0.0043
     26 C         139.1085  137.8347  163.9378 C.ar    1  UNL1       -0.0003
     27 C         138.7166  137.2205  165.2490 C.ar    1  UNL1       -0.0000
     28 C         138.1583  138.0812  166.3432 C.ar    1  UNL1       -0.0003
     29 C         137.9919  139.5561  166.1264 C.ar    1  UNL1       -0.0043
@<TRIPOS>BOND
     1     9    10    1
     2    10    11   ar
     3    11    12   ar
     4    12    13    1
     5    12    14   ar
     6    14    15   ar
     7    15    16   ar
     8    16     1    1
     9     1     2    1
    10     1     3    1
    11     3     4    1
    12     4     5    1
    13     5    18    1
    14    18    19   am
    15    19    20    2
    16    19    22    1
    17    22    23    1
    18    23    24    1
    19    24    25   ar
    20    25    26   ar
    21    26    27   ar
    22    27    28   ar
    23    28    29   ar
    24     5     6    1
    25     6     7    1
    26    16    10   ar
    27     7     1    1
    28    29    24   ar
    29    13    17    1
    30     2     8    1
    31    18    21    1
