@<TRIPOS>MOLECULE
*****
 41 46 0 0 0
SMALL
GASTEIGER

@<TRIPOS>ATOM
      1 C         143.8151  142.3929  158.6927 C.3     1  UNL1        0.0584
      2 C         145.2052  142.5537  158.1525 C.3     1  UNL1        0.0174
      3 N         143.5815  142.3943  160.1744 N.3     1  UNL1       -0.2733
      4 C         144.7952  142.6281  161.0244 C.3     1  UNL1        0.0768
      5 C         144.8922  142.6871  162.5201 C.3     1  UNL1        0.0434
      6 C         143.7996  142.5270  163.5352 C.ar    1  UNL1       -0.0233
      7 C         144.3271  142.6576  164.9333 C.ar    1  UNL1        0.0178
      8 C         143.3950  142.5295  166.1016 C.ar    1  UNL1        0.1181
      9 N         143.6238  142.6109  167.5818 N.ar    1  UNL1       -0.2050
     10 C         142.3057  142.4025  168.2668 C.ar    1  UNL1        0.3031
     11 O         141.2623  142.1923  167.2099 O.2     1  UNL1       -0.4321
     12 C         141.9355  142.2708  165.8718 C.ar    1  UNL1        0.1603
     13 C         141.4080  142.1402  164.4736 C.ar    1  UNL1        0.0101
     14 C         139.9485  141.8815  164.2438 C.3     1  UNL1        0.0339
     15 C         142.3400  142.2682  163.3054 C.ar    1  UNL1       -0.0256
     16 C         141.6127  142.1058  162.0036 C.3     1  UNL1        0.0431
     17 C         142.1652  142.1619  160.6102 C.3     1  UNL1        0.0768
     18 C         142.0722  142.4039  169.7485 C.3     1  UNL1        0.4696
     19 F         141.8387  142.4054  171.2301 F       1  UNL1       -0.1619
     20 F         142.9663  141.2080  169.8906 F       1  UNL1       -0.1619
     21 F         141.1781  143.5999  169.6064 F       1  UNL1       -0.1619
     22 C         142.6587  142.2305  157.7513 C.3     1  UNL1        0.0280
     23 C         142.7620  141.2835  156.5926 C.3     1  UNL1        0.0665
     24 S         142.2374  139.8840  156.7187 S.3     1  UNL1       -0.0756
     25 C         141.4713  138.4911  160.2596 C.ar    1  UNL1        0.1669
     26 N         142.8149  137.8801  159.9923 N.ar    1  UNL1       -0.1282
     27 N         143.2654  138.3275  158.6333 N.ar    1  UNL1       -0.1221
     28 C         142.2003  139.2150  158.0607 C.ar    1  UNL1        0.1932
     29 N         141.0914  139.3161  159.0659 N.ar    1  UNL1       -0.2884
     30 C         139.8251  140.1039  158.9054 C.3     1  UNL1        0.1340
     31 C         143.2295  138.8116  166.8971 C.3     1  UNL1        0.0521
     32 C         142.5851  138.6859  165.5485 C.ar    1  UNL1        0.0593
     33 C         143.4048  138.8680  164.3056 C.ar    1  UNL1        0.0147
     34 C         142.7604  138.7424  162.9569 C.ar    1  UNL1        0.0028
     35 C         141.2960  138.4346  162.8512 C.ar    1  UNL1        0.0206
     36 C         140.6515  138.3090  161.5025 C.ar    1  UNL1        0.0374
     37 C         139.1872  138.0013  161.3968 C.ar    1  UNL1        0.0031
     38 C         138.3675  137.8192  162.6397 C.ar    1  UNL1        0.0016
     39 C         139.0120  137.9448  163.9884 C.ar    1  UNL1        0.0191
     40 C         140.4763  138.2526  164.0940 C.ar    1  UNL1        0.0810
     41 N         141.1208  138.3782  165.4427 N.ar    1  UNL1       -0.2497
@<TRIPOS>BOND
     1    31    32    1
     2    32    33   ar
     3    33    34   ar
     4    34    35   ar
     5    35    36   ar
     6    36    25    1
     7    25    26   ar
     8    26    27   ar
     9    27    28   ar
    10    28    24    1
    11    24    23    1
    12    23    22    1
    13    22     1    1
    14     1     2    1
    15     1     3    1
    16     3     4    1
    17     4     5    1
    18     5     6    1
    19     6     7   ar
    20     7     8   ar
    21     8     9   ar
    22     9    10   ar
    23    10    18    1
    24    18    19    1
    25    18    20    1
    26    18    21    1
    27    10    11   ar
    28    11    12   ar
    29    12    13   ar
    30    13    14    1
    31    13    15   ar
    32    15    16    1
    33    16    17    1
    34    28    29   ar
    35    29    30    1
    36    36    37   ar
    37    37    38   ar
    38    38    39   ar
    39    39    40   ar
    40    40    41   ar
    41    41    32   ar
    42    40    35   ar
    43    29    25   ar
    44    17     3    1
    45    15     6   ar
    46    12     8   ar
@<TRIPOS>MOLECULE
*****
 41 46 0 0 0
SMALL
GASTEIGER

@<TRIPOS>ATOM
      1 C         138.7567  139.7705  159.2140 C.3     1  UNL1        0.0584
      2 C         137.7768  140.6486  158.4939 C.3     1  UNL1        0.0174
      3 N         138.9276  139.8976  160.6988 N.3     1  UNL1       -0.2733
      4 C         138.5110  138.7040  161.5063 C.3     1  UNL1        0.0768
      5 C         138.5564  138.5194  162.9942 C.3     1  UNL1        0.0434
      6 C         139.0294  139.4828  164.0421 C.ar    1  UNL1       -0.0233
      7 C         138.9051  138.8998  165.4186 C.ar    1  UNL1        0.0178
      8 C         139.3253  139.7027  166.6139 C.ar    1  UNL1        0.1181
      9 N         139.3195  139.3953  168.0820 N.ar    1  UNL1       -0.2050
     10 C         139.8604  140.5911  168.8082 C.ar    1  UNL1        0.3031
     11 O         140.2005  141.6376  167.7889 O.2     1  UNL1       -0.4321
     12 C         139.8698  141.0886  166.4328 C.ar    1  UNL1        0.1603
     13 C         139.9942  141.6716  165.0562 C.ar    1  UNL1        0.0101
     14 C         140.5387  143.0574  164.8751 C.3     1  UNL1        0.0339
     15 C         139.5740  140.8687  163.8610 C.ar    1  UNL1       -0.0256
     16 C         139.7800  141.6335  162.5871 C.3     1  UNL1        0.0431
     17 C         139.4922  141.2012  161.1798 C.3     1  UNL1        0.0768
     18 C         140.0312  140.7181  170.2931 C.3     1  UNL1        0.4696
     19 F         140.2020  140.8449  171.7778 F       1  UNL1       -0.1619
     20 F         140.8678  139.4731  170.3033 F       1  UNL1       -0.1619
     21 F         139.1946  141.9630  170.2829 F       1  UNL1       -0.1619
     22 C         139.5659  138.7653  158.4493 C.3     1  UNL1        0.0280
     23 C         140.2090  139.1518  157.1504 C.3     1  UNL1        0.0665
     24 S         141.6827  139.4259  157.0953 S.3     1  UNL1       -0.0756
     25 C         143.4229  140.3559  160.4377 C.ar    1  UNL1        0.1669
     26 N         143.9695  138.9795  160.1996 N.ar    1  UNL1       -0.1282
     27 N         143.3841  138.4636  158.9184 N.ar    1  UNL1       -0.1221
     28 C         142.4757  139.5211  158.3649 C.ar    1  UNL1        0.1932
     29 N         142.4998  140.6907  159.3039 N.ar    1  UNL1       -0.2884
     30 C         141.7348  141.9703  159.1381 C.3     1  UNL1        0.1340
     31 C         142.9096  139.2488  167.2024 C.3     1  UNL1        0.0521
     32 C         143.1180  139.7470  165.8031 C.ar    1  UNL1        0.0593
     33 C         142.7977  138.8610  164.6359 C.ar    1  UNL1        0.0147
     34 C         143.0061  139.3593  163.2365 C.ar    1  UNL1        0.0028
     35 C         143.5349  140.7437  163.0043 C.ar    1  UNL1        0.0206
     36 C         143.7433  141.2420  161.6049 C.ar    1  UNL1        0.0374
     37 C         144.2721  142.6263  161.3726 C.ar    1  UNL1        0.0031
     38 C         144.5924  143.5124  162.5398 C.ar    1  UNL1        0.0016
     39 C         144.3840  143.0141  163.9392 C.ar    1  UNL1        0.0191
     40 C         143.8552  141.6297  164.1714 C.ar    1  UNL1        0.0810
     41 N         143.6468  141.1314  165.5708 N.ar    1  UNL1       -0.2497
@<TRIPOS>BOND
     1    31    32    1
     2    32    33   ar
     3    33    34   ar
     4    34    35   ar
     5    35    36   ar
     6    36    25    1
     7    25    26   ar
     8    26    27   ar
     9    27    28   ar
    10    28    24    1
    11    24    23    1
    12    23    22    1
    13    22     1    1
    14     1     2    1
    15     1     3    1
    16     3     4    1
    17     4     5    1
    18     5     6    1
    19     6     7   ar
    20     7     8   ar
    21     8     9   ar
    22     9    10   ar
    23    10    18    1
    24    18    19    1
    25    18    20    1
    26    18    21    1
    27    10    11   ar
    28    11    12   ar
    29    12    13   ar
    30    13    14    1
    31    13    15   ar
    32    15    16    1
    33    16    17    1
    34    28    29   ar
    35    29    30    1
    36    36    37   ar
    37    37    38   ar
    38    38    39   ar
    39    39    40   ar
    40    40    41   ar
    41    41    32   ar
    42    40    35   ar
    43    29    25   ar
    44    17     3    1
    45    15     6   ar
    46    12     8   ar
@<TRIPOS>MOLECULE
*****
 41 46 0 0 0
SMALL
GASTEIGER

@<TRIPOS>ATOM
      1 C         138.2963  141.7229  158.7625 C.3     1  UNL1        0.0584
      2 C         137.6989  140.6368  157.9179 C.3     1  UNL1        0.0174
      3 N         138.4965  141.5051  160.2330 N.3     1  UNL1       -0.2733
      4 C         138.1225  140.1462  160.7464 C.3     1  UNL1        0.0768
      5 C         138.2038  139.6215  162.1494 C.3     1  UNL1        0.0434
      6 C         138.6792  140.3261  163.3852 C.ar    1  UNL1       -0.0233
      7 C         138.5968  139.4358  164.5897 C.ar    1  UNL1        0.0178
      8 C         139.0259  139.9487  165.9323 C.ar    1  UNL1        0.1181
      9 N         139.0582  139.3080  167.2881 N.ar    1  UNL1       -0.2050
     10 C         139.5897  140.3152  168.2644 C.ar    1  UNL1        0.3031
     11 O         139.8859  141.5785  167.5119 O.2     1  UNL1       -0.4321
     12 C         139.5374  141.3520  166.0707 C.ar    1  UNL1        0.1603
     13 C         139.6198  142.2424  164.8662 C.ar    1  UNL1        0.0101
     14 C         140.1314  143.6456  165.0045 C.3     1  UNL1        0.0339
     15 C         139.1907  141.7294  163.5236 C.ar    1  UNL1       -0.0256
     16 C         139.3532  142.7747  162.4601 C.3     1  UNL1        0.0431
     17 C         139.0442  142.6748  160.9956 C.3     1  UNL1        0.0768
     18 C         139.7898  140.0973  169.7349 C.3     1  UNL1        0.4696
     19 F         139.9899  139.8794  171.2054 F       1  UNL1       -0.1619
     20 F         138.4514  140.7166  170.0089 F       1  UNL1       -0.1619
     21 F         141.1282  139.4779  169.4610 F       1  UNL1       -0.1619
     22 C         138.6936  143.0269  158.1366 C.3     1  UNL1        0.0280
     23 C         139.7735  143.0613  157.0961 C.3     1  UNL1        0.0665
     24 S         141.1195  143.6326  157.4306 S.3     1  UNL1       -0.0756
     25 C         142.8402  142.8951  160.8306 C.ar    1  UNL1        0.1669
     26 N         143.2819  141.7129  160.0199 N.ar    1  UNL1       -0.1282
     27 N         142.6910  141.8453  158.6475 N.ar    1  UNL1       -0.1221
     28 C         141.8842  143.1093  158.6101 C.ar    1  UNL1        0.1932
     29 N         141.9765  143.7581  159.9594 N.ar    1  UNL1       -0.2884
     30 C         141.3202  145.0442  160.3660 C.3     1  UNL1        0.1340
     31 C         142.6274  138.8337  166.3723 C.3     1  UNL1        0.0521
     32 C         142.7704  139.9169  165.3446 C.ar    1  UNL1        0.0593
     33 C         142.4113  139.6454  163.9138 C.ar    1  UNL1        0.0147
     34 C         142.5543  140.7286  162.8860 C.ar    1  UNL1        0.0028
     35 C         143.0564  142.0834  163.2892 C.ar    1  UNL1        0.0206
     36 C         143.1994  143.1666  162.2615 C.ar    1  UNL1        0.0374
     37 C         143.7015  144.5214  162.6646 C.ar    1  UNL1        0.0031
     38 C         144.0606  144.7929  164.0955 C.ar    1  UNL1        0.0016
     39 C         143.9176  143.7097  165.1232 C.ar    1  UNL1        0.0191
     40 C         143.4155  142.3549  164.7200 C.ar    1  UNL1        0.0810
     41 N         143.2725  141.2717  165.7477 N.ar    1  UNL1       -0.2497
@<TRIPOS>BOND
     1    31    32    1
     2    32    33   ar
     3    33    34   ar
     4    34    35   ar
     5    35    36   ar
     6    36    25    1
     7    25    26   ar
     8    26    27   ar
     9    27    28   ar
    10    28    24    1
    11    24    23    1
    12    23    22    1
    13    22     1    1
    14     1     2    1
    15     1     3    1
    16     3     4    1
    17     4     5    1
    18     5     6    1
    19     6     7   ar
    20     7     8   ar
    21     8     9   ar
    22     9    10   ar
    23    10    18    1
    24    18    19    1
    25    18    20    1
    26    18    21    1
    27    10    11   ar
    28    11    12   ar
    29    12    13   ar
    30    13    14    1
    31    13    15   ar
    32    15    16    1
    33    16    17    1
    34    28    29   ar
    35    29    30    1
    36    36    37   ar
    37    37    38   ar
    38    38    39   ar
    39    39    40   ar
    40    40    41   ar
    41    41    32   ar
    42    40    35   ar
    43    29    25   ar
    44    17     3    1
    45    15     6   ar
    46    12     8   ar
@<TRIPOS>MOLECULE
*****
 41 46 0 0 0
SMALL
GASTEIGER

@<TRIPOS>ATOM
      1 C         138.8332  139.9585  159.0653 C.3     1  UNL1        0.0584
      2 C         137.9133  140.9072  158.3555 C.3     1  UNL1        0.0174
      3 N         139.0029  140.0501  160.5528 N.3     1  UNL1       -0.2733
      4 C         139.4482  141.3835  161.0761 C.3     1  UNL1        0.0768
      5 C         139.7055  141.7923  162.4963 C.3     1  UNL1        0.0434
      6 C         139.5810  140.9688  163.7437 C.ar    1  UNL1       -0.0233
      7 C         139.9343  141.7661  164.9642 C.ar    1  UNL1        0.0178
      8 C         139.8751  141.1276  166.3202 C.ar    1  UNL1        0.1181
      9 N         140.1639  141.6584  167.6931 N.ar    1  UNL1       -0.2050
     10 C         139.9300  140.5507  168.6771 C.ar    1  UNL1        0.3031
     11 O         139.4965  139.3353  167.9124 O.2     1  UNL1       -0.4321
     12 C         139.4625  139.6918  166.4558 C.ar    1  UNL1        0.1603
     13 C         139.1093  138.8945  165.2353 C.ar    1  UNL1        0.0101
     14 C         138.6968  137.4588  165.3708 C.3     1  UNL1        0.0339
     15 C         139.1685  139.5330  163.8793 C.ar    1  UNL1       -0.0256
     16 C         138.7786  138.5662  162.8008 C.3     1  UNL1        0.0431
     17 C         138.7049  138.7964  161.3204 C.3     1  UNL1        0.0768
     18 C         140.0998  140.6424  170.1647 C.3     1  UNL1        0.4696
     19 F         140.2696  140.7340  171.6521 F       1  UNL1       -0.1619
     20 F         140.9769  139.4258  170.1396 F       1  UNL1       -0.1619
     21 F         139.2226  141.8589  170.1898 F       1  UNL1       -0.1619
     22 C         139.5834  138.9182  158.2875 C.3     1  UNL1        0.0280
     23 C         140.2530  139.2849  156.9963 C.3     1  UNL1        0.0665
     24 S         141.7291  139.5494  156.9656 S.3     1  UNL1       -0.0756
     25 C         143.4243  140.4346  160.3431 C.ar    1  UNL1        0.1669
     26 N         143.9685  139.0585  160.0977 N.ar    1  UNL1       -0.1282
     27 N         143.3997  138.5594  158.8025 N.ar    1  UNL1       -0.1221
     28 C         142.5040  139.6270  158.2476 C.ar    1  UNL1        0.1932
     29 N         142.5192  140.7860  159.1998 N.ar    1  UNL1       -0.2884
     30 C         141.7622  142.0707  159.0371 C.3     1  UNL1        0.1340
     31 C         142.9495  139.2022  167.0890 C.3     1  UNL1        0.0521
     32 C         143.1449  139.7282  165.6979 C.ar    1  UNL1        0.0593
     33 C         142.8379  138.8565  164.5164 C.ar    1  UNL1        0.0147
     34 C         143.0334  139.3825  163.1253 C.ar    1  UNL1        0.0028
     35 C         143.5359  140.7803  162.9158 C.ar    1  UNL1        0.0206
     36 C         143.7313  141.3063  161.5246 C.ar    1  UNL1        0.0374
     37 C         144.2338  142.7040  161.3150 C.ar    1  UNL1        0.0031
     38 C         144.5408  143.5757  162.4965 C.ar    1  UNL1        0.0016
     39 C         144.3454  143.0497  163.8876 C.ar    1  UNL1        0.0191
     40 C         143.8429  141.6519  164.0972 C.ar    1  UNL1        0.0810
     41 N         143.6474  141.1259  165.4883 N.ar    1  UNL1       -0.2497
@<TRIPOS>BOND
     1    31    32    1
     2    32    33   ar
     3    33    34   ar
     4    34    35   ar
     5    35    36   ar
     6    36    25    1
     7    25    26   ar
     8    26    27   ar
     9    27    28   ar
    10    28    24    1
    11    24    23    1
    12    23    22    1
    13    22     1    1
    14     1     2    1
    15     1     3    1
    16     3     4    1
    17     4     5    1
    18     5     6    1
    19     6     7   ar
    20     7     8   ar
    21     8     9   ar
    22     9    10   ar
    23    10    18    1
    24    18    19    1
    25    18    20    1
    26    18    21    1
    27    10    11   ar
    28    11    12   ar
    29    12    13   ar
    30    13    14    1
    31    13    15   ar
    32    15    16    1
    33    16    17    1
    34    28    29   ar
    35    29    30    1
    36    36    37   ar
    37    37    38   ar
    38    38    39   ar
    39    39    40   ar
    40    40    41   ar
    41    41    32   ar
    42    40    35   ar
    43    29    25   ar
    44    17     3    1
    45    15     6   ar
    46    12     8   ar
@<TRIPOS>MOLECULE
*****
 41 46 0 0 0
SMALL
GASTEIGER

@<TRIPOS>ATOM
      1 C         141.3015  138.1586  159.0298 C.3     1  UNL1        0.0584
      2 C         142.4790  137.6750  158.2364 C.3     1  UNL1        0.0174
      3 N         141.4374  138.3964  160.5046 N.3     1  UNL1       -0.2733
      4 C         142.8013  138.1534  161.0799 C.3     1  UNL1        0.0768
      5 C         143.2562  138.2996  162.5019 C.3     1  UNL1        0.0434
      6 C         142.4596  138.7250  163.6995 C.ar    1  UNL1       -0.0233
      7 C         143.3015  138.7388  164.9409 C.ar    1  UNL1        0.0178
      8 C         142.6952  139.1367  166.2539 C.ar    1  UNL1        0.1181
      9 N         143.2720  139.2441  167.6344 N.ar    1  UNL1       -0.2050
     10 C         142.1803  139.6946  168.5592 C.ar    1  UNL1        0.3031
     11 O         140.9288  139.8657  167.7503 O.2     1  UNL1       -0.4321
     12 C         141.2470  139.5209  166.3256 C.ar    1  UNL1        0.1603
     13 C         140.4051  139.5071  165.0842 C.ar    1  UNL1        0.0101
     14 C         138.9569  139.8912  165.1558 C.3     1  UNL1        0.0339
     15 C         141.0114  139.1092  163.7712 C.ar    1  UNL1       -0.0256
     16 C         140.0021  139.1628  162.6628 C.3     1  UNL1        0.0431
     17 C         140.1918  138.8456  161.2091 C.3     1  UNL1        0.0768
     18 C         142.3164  139.9323  170.0340 C.3     1  UNL1        0.4696
     19 F         142.4526  140.1700  171.5087 F       1  UNL1       -0.1619
     20 F         143.5275  140.7818  169.7853 F       1  UNL1       -0.1619
     21 F         141.1055  139.0829  170.2827 F       1  UNL1       -0.1619
     22 C         139.9880  138.4046  158.3485 C.3     1  UNL1        0.0280
     23 C         139.9042  139.3774  157.2098 C.3     1  UNL1        0.0665
     24 S         139.1772  140.6775  157.3859 S.3     1  UNL1       -0.0756
     25 C         139.6232  142.7257  160.6525 C.ar    1  UNL1        0.1669
     26 N         140.6739  143.3428  159.7778 N.ar    1  UNL1       -0.1282
     27 N         140.6348  142.6506  158.4476 N.ar    1  UNL1       -0.1221
     28 C         139.5598  141.6057  158.5002 C.ar    1  UNL1        0.1932
     29 N         138.9346  141.6522  159.8630 N.ar    1  UNL1       -0.2884
     30 C         137.8170  140.7785  160.3505 C.3     1  UNL1        0.1340
     31 C         143.5410  142.6283  166.2997 C.3     1  UNL1        0.0521
     32 C         142.4846  142.7497  165.2419 C.ar    1  UNL1        0.0593
     33 C         142.7927  142.3614  163.8261 C.ar    1  UNL1        0.0147
     34 C         141.7362  142.4828  162.7682 C.ar    1  UNL1        0.0028
     35 C         140.3716  142.9926  163.1262 C.ar    1  UNL1        0.0206
     36 C         139.3151  143.1140  162.0683 C.ar    1  UNL1        0.0374
     37 C         137.9505  143.6237  162.4261 C.ar    1  UNL1        0.0031
     38 C         137.6424  144.0120  163.8419 C.ar    1  UNL1        0.0016
     39 C         138.6989  143.8906  164.8998 C.ar    1  UNL1        0.0191
     40 C         140.0635  143.3809  164.5418 C.ar    1  UNL1        0.0810
     41 N         141.1200  143.2594  165.5997 N.ar    1  UNL1       -0.2497
@<TRIPOS>BOND
     1    31    32    1
     2    32    33   ar
     3    33    34   ar
     4    34    35   ar
     5    35    36   ar
     6    36    25    1
     7    25    26   ar
     8    26    27   ar
     9    27    28   ar
    10    28    24    1
    11    24    23    1
    12    23    22    1
    13    22     1    1
    14     1     2    1
    15     1     3    1
    16     3     4    1
    17     4     5    1
    18     5     6    1
    19     6     7   ar
    20     7     8   ar
    21     8     9   ar
    22     9    10   ar
    23    10    18    1
    24    18    19    1
    25    18    20    1
    26    18    21    1
    27    10    11   ar
    28    11    12   ar
    29    12    13   ar
    30    13    14    1
    31    13    15   ar
    32    15    16    1
    33    16    17    1
    34    28    29   ar
    35    29    30    1
    36    36    37   ar
    37    37    38   ar
    38    38    39   ar
    39    39    40   ar
    40    40    41   ar
    41    41    32   ar
    42    40    35   ar
    43    29    25   ar
    44    17     3    1
    45    15     6   ar
    46    12     8   ar
@<TRIPOS>MOLECULE
*****
 41 46 0 0 0
SMALL
GASTEIGER

@<TRIPOS>ATOM
      1 C         143.2414  141.3517  169.4938 C.3     1  UNL1        0.0584
      2 C         144.1109  142.5070  169.8929 C.3     1  UNL1        0.0174
      3 N         143.0980  140.9858  168.0462 N.3     1  UNL1       -0.2733
      4 C         142.7979  139.5430  167.7662 C.3     1  UNL1        0.0768
      5 C         142.5994  138.8691  166.4408 C.3     1  UNL1        0.0434
      6 C         142.6518  139.4716  165.0683 C.ar    1  UNL1       -0.0233
      7 C         142.3956  138.4422  164.0077 C.ar    1  UNL1        0.0178
      8 C         142.4034  138.8379  162.5609 C.ar    1  UNL1        0.1181
      9 N         142.1855  138.0495  161.3036 N.ar    1  UNL1       -0.2050
     10 C         142.3147  138.9874  160.1401 C.ar    1  UNL1        0.3031
     11 O         142.6126  140.3554  160.6784 O.2     1  UNL1       -0.4321
     12 C         142.6674  140.2630  162.1745 C.ar    1  UNL1        0.1603
     13 C         142.9236  141.2925  163.2350 C.ar    1  UNL1        0.0101
     14 C         143.1876  142.7176  162.8486 C.3     1  UNL1        0.0339
     15 C         142.9158  140.8968  164.6818 C.ar    1  UNL1       -0.0256
     16 C         143.1926  142.0714  165.5727 C.3     1  UNL1        0.0431
     17 C         143.2736  142.1110  167.0700 C.3     1  UNL1        0.0768
     18 C         142.1713  138.6215  158.6925 C.3     1  UNL1        0.4696
     19 F         142.0279  138.2556  157.2449 F       1  UNL1       -0.1619
     20 F         141.3028  139.8248  158.4743 F       1  UNL1       -0.1619
     21 F         143.0398  137.4181  158.9106 F       1  UNL1       -0.1619
     22 C         142.5154  140.5621  170.5423 C.3     1  UNL1        0.0280
     23 C         141.3180  141.1497  171.2287 C.3     1  UNL1        0.0665
     24 S         139.9409  140.8726  170.7027 S.3     1  UNL1       -0.0756
     25 C         139.5416  141.3232  166.8683 C.ar    1  UNL1        0.1669
     26 N         139.1682  139.8795  167.0309 N.ar    1  UNL1       -0.1282
     27 N         139.2724  139.5350  168.4871 N.ar    1  UNL1       -0.1221
     28 C         139.7101  140.7657  169.2245 C.ar    1  UNL1        0.1932
     29 N         139.8764  141.8709  168.2239 N.ar    1  UNL1       -0.2884
     30 C         140.3028  143.2769  168.5261 C.3     1  UNL1        0.1340
     31 C         138.6173  139.2334  160.3853 C.3     1  UNL1        0.0521
     32 C         138.8565  139.9463  161.6832 C.ar    1  UNL1        0.0593
     33 C         138.8238  139.1842  162.9747 C.ar    1  UNL1        0.0147
     34 C         139.0631  139.8971  164.2726 C.ar    1  UNL1        0.0028
     35 C         139.3350  141.3723  164.2789 C.ar    1  UNL1        0.0206
     36 C         139.5743  142.0853  165.5768 C.ar    1  UNL1        0.0374
     37 C         139.8462  143.5604  165.5831 C.ar    1  UNL1        0.0031
     38 C         139.8789  144.3226  164.2915 C.ar    1  UNL1        0.0016
     39 C         139.6397  143.6096  162.9937 C.ar    1  UNL1        0.0191
     40 C         139.3677  142.1344  162.9874 C.ar    1  UNL1        0.0810
     41 N         139.1285  141.4214  161.6895 N.ar    1  UNL1       -0.2497
@<TRIPOS>BOND
     1    31    32    1
     2    32    33   ar
     3    33    34   ar
     4    34    35   ar
     5    35    36   ar
     6    36    25    1
     7    25    26   ar
     8    26    27   ar
     9    27    28   ar
    10    28    24    1
    11    24    23    1
    12    23    22    1
    13    22     1    1
    14     1     2    1
    15     1     3    1
    16     3     4    1
    17     4     5    1
    18     5     6    1
    19     6     7   ar
    20     7     8   ar
    21     8     9   ar
    22     9    10   ar
    23    10    18    1
    24    18    19    1
    25    18    20    1
    26    18    21    1
    27    10    11   ar
    28    11    12   ar
    29    12    13   ar
    30    13    14    1
    31    13    15   ar
    32    15    16    1
    33    16    17    1
    34    28    29   ar
    35    29    30    1
    36    36    37   ar
    37    37    38   ar
    38    38    39   ar
    39    39    40   ar
    40    40    41   ar
    41    41    32   ar
    42    40    35   ar
    43    29    25   ar
    44    17     3    1
    45    15     6   ar
    46    12     8   ar
@<TRIPOS>MOLECULE
*****
 41 46 0 0 0
SMALL
GASTEIGER

@<TRIPOS>ATOM
      1 C         141.3908  142.9266  169.4148 C.3     1  UNL1        0.0584
      2 C         140.3641  143.8838  169.9436 C.3     1  UNL1        0.0174
      3 N         141.6688  142.8630  167.9422 N.3     1  UNL1       -0.2733
      4 C         140.4952  143.1280  167.0463 C.3     1  UNL1        0.0768
      5 C         140.4465  143.1382  165.5470 C.3     1  UNL1        0.0434
      6 C         141.5594  142.8861  164.5736 C.ar    1  UNL1       -0.0233
      7 C         141.0819  142.9934  163.1556 C.ar    1  UNL1        0.0178
      8 C         142.0408  142.7760  162.0228 C.ar    1  UNL1        0.1181
      9 N         141.8613  142.8159  160.5342 N.ar    1  UNL1       -0.2050
     10 C         143.1868  142.5158  159.8992 C.ar    1  UNL1        0.3031
     11 O         144.1855  142.2905  160.9955 O.2     1  UNL1       -0.4321
     12 C         143.4773  142.4513  162.3079 C.ar    1  UNL1        0.1603
     13 C         143.9548  142.3441  163.7259 C.ar    1  UNL1        0.0101
     14 C         145.3911  142.0194  164.0110 C.3     1  UNL1        0.0339
     15 C         142.9958  142.5615  164.8586 C.ar    1  UNL1       -0.0256
     16 C         143.6741  142.4087  166.1878 C.3     1  UNL1        0.0431
     17 C         143.0835  142.5430  167.5600 C.3     1  UNL1        0.0768
     18 C         143.4647  142.4523  158.4265 C.3     1  UNL1        0.4696
     19 F         143.7425  142.3887  156.9539 F       1  UNL1       -0.1619
     20 F         141.9940  142.3395  158.1539 F       1  UNL1       -0.1619
     21 F         144.9354  142.5650  158.6991 F       1  UNL1       -0.1619
     22 C         142.1395  142.0330  170.3586 C.3     1  UNL1        0.0280
     23 C         141.5163  140.7542  170.8342 C.3     1  UNL1        0.0665
     24 S         141.9142  139.4489  170.2114 S.3     1  UNL1       -0.0756
     25 C         141.3694  139.3180  166.3707 C.ar    1  UNL1        0.1669
     26 N         142.8145  138.9286  166.4719 N.ar    1  UNL1       -0.1282
     27 N         143.1944  138.9302  167.9230 N.ar    1  UNL1       -0.1221
     28 C         141.9842  139.3206  168.7186 C.ar    1  UNL1        0.1932
     29 N         140.8563  139.5603  167.7592 N.ar    1  UNL1       -0.2884
     30 C         139.4604  139.9702  168.1243 C.3     1  UNL1        0.1340
     31 C         143.2922  138.8084  159.7910 C.3     1  UNL1        0.0521
     32 C         142.6134  138.9670  161.1191 C.ar    1  UNL1        0.0593
     33 C         143.4062  138.8419  162.3863 C.ar    1  UNL1        0.0147
     34 C         142.7273  139.0006  163.7145 C.ar    1  UNL1        0.0028
     35 C         141.2556  139.2844  163.7753 C.ar    1  UNL1        0.0206
     36 C         140.5767  139.4431  165.1035 C.ar    1  UNL1        0.0374
     37 C         139.1050  139.7269  165.1644 C.ar    1  UNL1        0.0031
     38 C         138.3123  139.8520  163.8971 C.ar    1  UNL1        0.0016
     39 C         138.9912  139.6933  162.5690 C.ar    1  UNL1        0.0191
     40 C         140.4629  139.4095  162.5081 C.ar    1  UNL1        0.0810
     41 N         141.1418  139.2508  161.1800 N.ar    1  UNL1       -0.2497
@<TRIPOS>BOND
     1    31    32    1
     2    32    33   ar
     3    33    34   ar
     4    34    35   ar
     5    35    36   ar
     6    36    25    1
     7    25    26   ar
     8    26    27   ar
     9    27    28   ar
    10    28    24    1
    11    24    23    1
    12    23    22    1
    13    22     1    1
    14     1     2    1
    15     1     3    1
    16     3     4    1
    17     4     5    1
    18     5     6    1
    19     6     7   ar
    20     7     8   ar
    21     8     9   ar
    22     9    10   ar
    23    10    18    1
    24    18    19    1
    25    18    20    1
    26    18    21    1
    27    10    11   ar
    28    11    12   ar
    29    12    13   ar
    30    13    14    1
    31    13    15   ar
    32    15    16    1
    33    16    17    1
    34    28    29   ar
    35    29    30    1
    36    36    37   ar
    37    37    38   ar
    38    38    39   ar
    39    39    40   ar
    40    40    41   ar
    41    41    32   ar
    42    40    35   ar
    43    29    25   ar
    44    17     3    1
    45    15     6   ar
    46    12     8   ar
@<TRIPOS>MOLECULE
*****
 41 46 0 0 0
SMALL
GASTEIGER

@<TRIPOS>ATOM
      1 C         141.8650  142.2135  168.1915 C.3     1  UNL1        0.0584
      2 C         141.0104  142.8125  169.2689 C.3     1  UNL1        0.0174
      3 N         141.7097  142.6691  166.7708 N.3     1  UNL1       -0.2733
      4 C         142.9836  142.8225  165.9937 C.3     1  UNL1        0.0768
      5 C         143.1636  143.2557  164.5689 C.3     1  UNL1        0.0434
      6 C         142.1142  143.6426  163.5695 C.ar    1  UNL1       -0.0233
      7 C         142.7241  144.0126  162.2499 C.ar    1  UNL1        0.0178
      8 C         141.8454  144.4318  161.1088 C.ar    1  UNL1        0.1181
      9 N         142.1578  144.8499  159.7025 N.ar    1  UNL1       -0.2050
     10 C         140.8623  145.1576  159.0118 C.ar    1  UNL1        0.3031
     11 O         139.7493  144.9296  159.9911 O.2     1  UNL1       -0.4321
     12 C         140.3569  144.4811  161.2871 C.ar    1  UNL1        0.1603
     13 C         139.7470  144.1111  162.6067 C.ar    1  UNL1        0.0101
     14 C         138.2585  144.1603  162.7850 C.3     1  UNL1        0.0339
     15 C         140.6256  143.6919  163.7478 C.ar    1  UNL1       -0.0256
     16 C         139.8188  143.3663  164.9698 C.3     1  UNL1        0.0431
     17 C         140.3014  142.9112  166.3151 C.3     1  UNL1        0.0768
     18 C         140.7072  145.6132  157.5911 C.3     1  UNL1        0.4696
     19 F         140.5521  146.0688  156.1704 F       1  UNL1       -0.1619
     20 F         139.4307  144.8333  157.4803 F       1  UNL1       -0.1619
     21 F         141.9837  146.3930  157.7018 F       1  UNL1       -0.1619
     22 C         142.8748  141.1588  168.5347 C.3     1  UNL1        0.0280
     23 C         142.4961  139.7088  168.4715 C.3     1  UNL1        0.0665
     24 S         142.9670  138.8597  167.3281 S.3     1  UNL1       -0.0756
     25 C         141.3675  139.8477  163.9324 C.ar    1  UNL1        0.1669
     26 N         142.8222  139.8123  163.5682 N.ar    1  UNL1       -0.1282
     27 N         143.5985  139.4379  164.7959 N.ar    1  UNL1       -0.1221
     28 C         142.6235  139.2419  165.9189 C.ar    1  UNL1        0.1932
     29 N         141.2447  139.4952  165.3852 N.ar    1  UNL1       -0.2884
     30 C         139.9674  139.4107  166.1671 C.3     1  UNL1        0.1340
     31 C         141.3683  141.8693  157.3625 C.3     1  UNL1        0.0521
     32 C         141.0850  141.4464  158.7735 C.ar    1  UNL1        0.0593
     33 C         142.2179  141.1164  159.6995 C.ar    1  UNL1        0.0147
     34 C         141.9345  140.6935  161.1105 C.ar    1  UNL1        0.0028
     35 C         140.5180  140.6006  161.5954 C.ar    1  UNL1        0.0206
     36 C         140.2346  140.1777  163.0064 C.ar    1  UNL1        0.0374
     37 C         138.8182  140.0847  163.4914 C.ar    1  UNL1        0.0031
     38 C         137.6852  140.4147  162.5653 C.ar    1  UNL1        0.0016
     39 C         137.9687  140.8376  161.1543 C.ar    1  UNL1        0.0191
     40 C         139.3851  140.9305  160.6694 C.ar    1  UNL1        0.0810
     41 N         139.6686  141.3535  159.2584 N.ar    1  UNL1       -0.2497
@<TRIPOS>BOND
     1    31    32    1
     2    32    33   ar
     3    33    34   ar
     4    34    35   ar
     5    35    36   ar
     6    36    25    1
     7    25    26   ar
     8    26    27   ar
     9    27    28   ar
    10    28    24    1
    11    24    23    1
    12    23    22    1
    13    22     1    1
    14     1     2    1
    15     1     3    1
    16     3     4    1
    17     4     5    1
    18     5     6    1
    19     6     7   ar
    20     7     8   ar
    21     8     9   ar
    22     9    10   ar
    23    10    18    1
    24    18    19    1
    25    18    20    1
    26    18    21    1
    27    10    11   ar
    28    11    12   ar
    29    12    13   ar
    30    13    14    1
    31    13    15   ar
    32    15    16    1
    33    16    17    1
    34    28    29   ar
    35    29    30    1
    36    36    37   ar
    37    37    38   ar
    38    38    39   ar
    39    39    40   ar
    40    40    41   ar
    41    41    32   ar
    42    40    35   ar
    43    29    25   ar
    44    17     3    1
    45    15     6   ar
    46    12     8   ar
@<TRIPOS>MOLECULE
*****
 41 46 0 0 0
SMALL
GASTEIGER

@<TRIPOS>ATOM
      1 C         140.1123  144.2779  158.6129 C.3     1  UNL1        0.0584
      2 C         140.5349  145.6956  158.3652 C.3     1  UNL1        0.0174
      3 N         140.1706  143.7093  159.9997 N.3     1  UNL1       -0.2733
      4 C         141.4638  143.9121  160.7323 C.3     1  UNL1        0.0768
      5 C         141.8338  143.4687  162.1168 C.3     1  UNL1        0.0434
      6 C         141.0021  142.7131  163.1103 C.ar    1  UNL1       -0.0233
      7 C         141.7562  142.4701  164.3841 C.ar    1  UNL1        0.0178
      8 C         141.1031  141.7282  165.5124 C.ar    1  UNL1        0.1181
      9 N         141.5934  141.3416  166.8763 N.ar    1  UNL1       -0.2050
     10 C         140.4893  140.6038  167.5738 C.ar    1  UNL1        0.3031
     11 O         139.3167  140.5344  166.6411 O.2     1  UNL1       -0.4321
     12 C         139.6960  141.2293  165.3671 C.ar    1  UNL1        0.1603
     13 C         138.9419  141.4723  164.0934 C.ar    1  UNL1        0.0101
     14 C         137.5348  140.9735  163.9480 C.3     1  UNL1        0.0339
     15 C         139.5949  142.2142  162.9650 C.ar    1  UNL1       -0.0256
     16 C         138.6720  142.3477  161.7902 C.3     1  UNL1        0.0431
     17 C         138.9283  143.0131  160.4705 C.3     1  UNL1        0.0768
     18 C         140.5477  140.0352  168.9607 C.3     1  UNL1        0.4696
     19 F         140.6061  139.4666  170.3475 F       1  UNL1       -0.1619
     20 F         139.1797  140.5821  169.2425 F       1  UNL1       -0.1619
     21 F         141.9157  139.4882  168.6789 F       1  UNL1       -0.1619
     22 C         139.6314  143.4287  157.4737 C.3     1  UNL1        0.0280
     23 C         140.6173  142.8413  156.5077 C.3     1  UNL1        0.0665
     24 S         141.1190  141.4418  156.7061 S.3     1  UNL1       -0.0756
     25 C         141.1163  139.8640  160.2524 C.ar    1  UNL1        0.1669
     26 N         142.5040  140.4299  160.1880 N.ar    1  UNL1       -0.1282
     27 N         142.6739  141.0899  158.8517 N.ar    1  UNL1       -0.1221
     28 C         141.3912  140.9318  158.0902 C.ar    1  UNL1        0.1932
     29 N         140.4287  140.1741  158.9559 N.ar    1  UNL1       -0.2884
     30 C         139.0248  139.7935  158.5894 C.3     1  UNL1        0.1340
     31 C         143.7605  138.2087  166.3776 C.3     1  UNL1        0.0521
     32 C         142.9507  138.4363  165.1358 C.ar    1  UNL1        0.0593
     33 C         143.5460  139.1815  163.9781 C.ar    1  UNL1        0.0147
     34 C         142.7362  139.4090  162.7362 C.ar    1  UNL1        0.0028
     35 C         141.3308  138.8912  162.6519 C.ar    1  UNL1        0.0206
     36 C         140.5209  139.1187  161.4100 C.ar    1  UNL1        0.0374
     37 C         139.1157  138.6010  161.3257 C.ar    1  UNL1        0.0031
     38 C         138.5203  137.8557  162.4833 C.ar    1  UNL1        0.0016
     39 C         139.3302  137.6282  163.7253 C.ar    1  UNL1        0.0191
     40 C         140.7355  138.1460  163.8095 C.ar    1  UNL1        0.0810
     41 N         141.5454  137.9185  165.0514 N.ar    1  UNL1       -0.2497
@<TRIPOS>BOND
     1    31    32    1
     2    32    33   ar
     3    33    34   ar
     4    34    35   ar
     5    35    36   ar
     6    36    25    1
     7    25    26   ar
     8    26    27   ar
     9    27    28   ar
    10    28    24    1
    11    24    23    1
    12    23    22    1
    13    22     1    1
    14     1     2    1
    15     1     3    1
    16     3     4    1
    17     4     5    1
    18     5     6    1
    19     6     7   ar
    20     7     8   ar
    21     8     9   ar
    22     9    10   ar
    23    10    18    1
    24    18    19    1
    25    18    20    1
    26    18    21    1
    27    10    11   ar
    28    11    12   ar
    29    12    13   ar
    30    13    14    1
    31    13    15   ar
    32    15    16    1
    33    16    17    1
    34    28    29   ar
    35    29    30    1
    36    36    37   ar
    37    37    38   ar
    38    38    39   ar
    39    39    40   ar
    40    40    41   ar
    41    41    32   ar
    42    40    35   ar
    43    29    25   ar
    44    17     3    1
    45    15     6   ar
    46    12     8   ar
