@<TRIPOS>MOLECULE
*****
 31 33 0 0 0
SMALL
GASTEIGER

@<TRIPOS>ATOM
      1 N         138.7425  139.0242  163.5671 N.3     1  UNL1       -0.2716
      2 C         139.1209  139.4929  164.9408 C.3     1  UNL1        0.0610
      3 C         138.3782  138.9808  166.1391 C.3     1  UNL1        0.0375
      4 C         138.7567  139.4495  167.5128 C.3     1  UNL1        0.0950
      5 N         139.8779  140.4304  167.6882 N.pl3   1  UNL1       -0.2785
      6 C         140.6207  140.9426  166.4898 C.3     1  UNL1        0.0950
      7 C         140.2422  140.4738  165.1161 C.3     1  UNL1        0.0375
      8 C         140.2564  140.8991  169.0619 C.ar    1  UNL1        0.2163
      9 N         141.4831  141.6855  169.4184 N.ar    1  UNL1       -0.1804
     10 C         141.4594  141.9361  170.8971 C.ar    1  UNL1        0.2331
     11 N         142.4952  142.6864  171.6808 N.pl3   1  UNL1       -0.3262
     12 N         140.2182  141.3047  171.4546 N.ar    1  UNL1       -0.1354
     13 N         139.4747  140.6638  170.3203 N.ar    1  UNL1       -0.2450
     14 H         143.2794  143.0664  171.2227 H       1  UNL1        0.1452
     15 H         142.3908  142.7989  172.6533 H       1  UNL1        0.1452
     16 H         138.6232  140.1746  170.3897 H       1  UNL1        0.1919
     17 C         139.3308  137.7584  163.0180 C.3     1  UNL1        0.0995
     18 C         140.7707  137.7205  162.5996 C.3     1  UNL1        0.1076
     19 C         140.4166  138.4145  161.3178 C.3     1  UNL1        0.0311
     20 C         141.1249  137.0266  163.8814 C.3     1  UNL1        0.0311
     21 C         143.2286  138.4983  162.9218 C.3     1  UNL1        0.1739
     22 O         142.2108  137.6826  162.1812 O.3     1  UNL1       -0.3545
     23 C         137.7756  139.8214  162.7426 C.3     1  UNL1        0.0768
     24 C         137.2342  141.1183  163.2668 C.3     1  UNL1        0.0437
     25 C         137.9509  142.4032  162.9742 C.ar    1  UNL1       -0.0207
     26 C         138.6597  142.5853  161.6648 C.ar    1  UNL1       -0.0034
     27 C         139.3763  143.8701  161.3723 C.ar    1  UNL1        0.0111
     28 C         139.3843  144.9728  162.3892 C.ar    1  UNL1        0.0577
     29 CL        140.1010  146.2576  162.0966 Cl      1  UNL1       -0.0822
     30 C         138.6755  144.7907  163.6985 C.ar    1  UNL1        0.0111
     31 C         137.9589  143.5059  163.9910 C.ar    1  UNL1       -0.0034
@<TRIPOS>BOND
     1    21    22    1
     2    22    18    1
     3    18    19    1
     4    18    20    1
     5    18    17    1
     6    17     1    1
     7     1    23    1
     8    23    24    1
     9    24    25    1
    10    25    26   ar
    11    26    27   ar
    12    27    28   ar
    13    28    29    1
    14    28    30   ar
    15    30    31   ar
    16     1     2    1
    17     2     3    1
    18     3     4    1
    19     4     5    1
    20     5     8    1
    21     8     9   ar
    22     9    10   ar
    23    10    11    1
    24    10    12   ar
    25    12    13   ar
    26     5     6    1
    27     6     7    1
    28    31    25   ar
    29     7     2    1
    30    13     8   ar
    31    11    14    1
    32    11    15    1
    33    13    16    1
@<TRIPOS>MOLECULE
*****
 31 33 0 0 0
SMALL
GASTEIGER

@<TRIPOS>ATOM
      1 N         139.3375  140.0738  166.6078 N.3     1  UNL1       -0.2716
      2 C         139.5173  141.0620  165.4938 C.3     1  UNL1        0.0610
      3 C         138.3572  141.8953  165.0360 C.3     1  UNL1        0.0375
      4 C         138.5370  142.8835  163.9219 C.3     1  UNL1        0.0950
      5 N         139.8768  143.0384  163.2656 N.pl3   1  UNL1       -0.2785
      6 C         141.0370  142.2049  163.7234 C.3     1  UNL1        0.0950
      7 C         140.8572  141.2167  164.8375 C.3     1  UNL1        0.0375
      8 C         140.0566  144.0266  162.1516 C.ar    1  UNL1        0.2163
      9 N         141.2267  144.0968  161.2155 N.ar    1  UNL1       -0.1804
     10 C         140.9910  145.2317  160.2634 C.ar    1  UNL1        0.2331
     11 N         141.9098  145.6602  159.1578 N.pl3   1  UNL1       -0.3262
     12 N         139.6754  145.8628  160.6109 N.ar    1  UNL1       -0.1354
     13 N         139.0979  145.1180  161.7779 N.ar    1  UNL1       -0.2450
     14 H         142.7562  145.1804  159.0074 H       1  UNL1        0.1452
     15 H         141.6664  146.4212  158.5826 H       1  UNL1        0.1452
     16 H         138.2402  145.3116  162.2208 H       1  UNL1        0.1919
     17 C         140.2510  140.1097  167.7970 C.3     1  UNL1        0.0995
     18 C         140.0498  141.1422  168.8663 C.3     1  UNL1        0.1076
     19 C         138.9712  140.2982  169.4781 C.3     1  UNL1        0.0311
     20 C         141.1283  141.9861  168.2545 C.3     1  UNL1        0.0311
     21 C         140.3797  143.5646  169.7457 C.3     1  UNL1        0.1739
     22 O         139.8486  142.1747  169.9357 O.3     1  UNL1       -0.3545
     23 C         138.2441  139.0495  166.5327 C.3     1  UNL1        0.0768
     24 C         138.4552  137.7827  165.7578 C.3     1  UNL1        0.0437
     25 C         139.3466  137.7811  164.5514 C.ar    1  UNL1       -0.0207
     26 C         140.8072  137.4727  164.6984 C.ar    1  UNL1       -0.0034
     27 C         141.6985  137.4711  163.4920 C.ar    1  UNL1        0.0111
     28 C         141.1293  137.7779  162.1386 C.ar    1  UNL1        0.0577
     29 CL        142.0207  137.7762  160.9321 Cl      1  UNL1       -0.0822
     30 C         139.6688  138.0862  161.9915 C.ar    1  UNL1        0.0111
     31 C         138.7774  138.0878  163.1979 C.ar    1  UNL1       -0.0034
@<TRIPOS>BOND
     1    21    22    1
     2    22    18    1
     3    18    19    1
     4    18    20    1
     5    18    17    1
     6    17     1    1
     7     1    23    1
     8    23    24    1
     9    24    25    1
    10    25    26   ar
    11    26    27   ar
    12    27    28   ar
    13    28    29    1
    14    28    30   ar
    15    30    31   ar
    16     1     2    1
    17     2     3    1
    18     3     4    1
    19     4     5    1
    20     5     8    1
    21     8     9   ar
    22     9    10   ar
    23    10    11    1
    24    10    12   ar
    25    12    13   ar
    26     5     6    1
    27     6     7    1
    28    31    25   ar
    29     7     2    1
    30    13     8   ar
    31    11    14    1
    32    11    15    1
    33    13    16    1
@<TRIPOS>MOLECULE
*****
 31 33 0 0 0
SMALL
GASTEIGER

@<TRIPOS>ATOM
      1 N         139.8525  140.9395  168.4191 N.3     1  UNL1       -0.2716
      2 C         140.6806  141.4760  167.2892 C.3     1  UNL1        0.0610
      3 C         142.0164  140.8663  166.9830 C.3     1  UNL1        0.0375
      4 C         142.8444  141.4027  165.8532 C.3     1  UNL1        0.0950
      5 N         142.3366  142.5489  165.0295 N.pl3   1  UNL1       -0.2785
      6 C         141.0008  143.1587  165.3357 C.3     1  UNL1        0.0950
      7 C         140.1727  142.6222  166.4656 C.3     1  UNL1        0.0375
      8 C         143.1647  143.0854  163.8997 C.ar    1  UNL1        0.2163
      9 N         143.7995  142.2741  162.8092 N.ar    1  UNL1       -0.1804
     10 C         144.5304  143.2147  161.8975 C.ar    1  UNL1        0.2331
     11 N         145.3079  142.8302  160.6737 N.pl3   1  UNL1       -0.3262
     12 N         144.3474  144.6071  162.4245 N.ar    1  UNL1       -0.1354
     13 N         143.5033  144.5271  163.6619 N.ar    1  UNL1       -0.2450
     14 H         145.3706  141.8845  160.4073 H       1  UNL1        0.1452
     15 H         145.7556  143.5236  160.1369 H       1  UNL1        0.1452
     16 H         143.2211  145.2875  164.2199 H       1  UNL1        0.1919
     17 C         139.6793  141.7470  169.6713 C.3     1  UNL1        0.0995
     18 C         140.8775  142.3333  170.3573 C.3     1  UNL1        0.1076
     19 C         141.2907  140.9632  170.8066 C.3     1  UNL1        0.0311
     20 C         140.4643  143.7034  169.9079 C.3     1  UNL1        0.0311
     21 C         143.4088  142.9185  170.3558 C.3     1  UNL1        0.1739
     22 O         142.0757  142.9197  171.0433 O.3     1  UNL1       -0.3545
     23 C         139.1977  139.5955  168.2967 C.3     1  UNL1        0.0768
     24 C         138.0490  139.4042  167.3513 C.3     1  UNL1        0.0437
     25 C         138.3100  139.1127  165.9032 C.ar    1  UNL1       -0.0207
     26 C         138.7812  137.7514  165.4853 C.ar    1  UNL1       -0.0034
     27 C         139.0421  137.4599  164.0372 C.ar    1  UNL1        0.0111
     28 C         138.8320  138.5298  163.0071 C.ar    1  UNL1        0.0577
     29 CL        139.0930  138.2383  161.5590 Cl      1  UNL1       -0.0822
     30 C         138.3608  139.8912  163.4250 C.ar    1  UNL1        0.0111
     31 C         138.0998  140.1826  164.8731 C.ar    1  UNL1       -0.0034
@<TRIPOS>BOND
     1    21    22    1
     2    22    18    1
     3    18    19    1
     4    18    20    1
     5    18    17    1
     6    17     1    1
     7     1    23    1
     8    23    24    1
     9    24    25    1
    10    25    26   ar
    11    26    27   ar
    12    27    28   ar
    13    28    29    1
    14    28    30   ar
    15    30    31   ar
    16     1     2    1
    17     2     3    1
    18     3     4    1
    19     4     5    1
    20     5     8    1
    21     8     9   ar
    22     9    10   ar
    23    10    11    1
    24    10    12   ar
    25    12    13   ar
    26     5     6    1
    27     6     7    1
    28    31    25   ar
    29     7     2    1
    30    13     8   ar
    31    11    14    1
    32    11    15    1
    33    13    16    1
@<TRIPOS>MOLECULE
*****
 31 33 0 0 0
SMALL
GASTEIGER

@<TRIPOS>ATOM
      1 N         141.2983  141.6035  166.4925 N.3     1  UNL1       -0.2716
      2 C         141.2089  142.2729  165.1531 C.3     1  UNL1        0.0610
      3 C         141.7222  141.5735  163.9294 C.3     1  UNL1        0.0375
      4 C         141.6328  142.2429  162.5900 C.3     1  UNL1        0.0950
      5 N         141.0301  143.6116  162.4743 N.pl3   1  UNL1       -0.2785
      6 C         140.5168  144.3110  163.6980 C.3     1  UNL1        0.0950
      7 C         140.6062  143.6416  165.0374 C.3     1  UNL1        0.0375
      8 C         140.9407  144.2809  161.1349 C.ar    1  UNL1        0.2163
      9 N         142.0994  144.6886  160.2739 N.ar    1  UNL1       -0.1804
     10 C         141.5517  145.3197  159.0282 C.ar    1  UNL1        0.2331
     11 N         142.3594  145.8716  157.8910 N.pl3   1  UNL1       -0.3262
     12 N         140.0546  145.3022  159.1193 N.ar    1  UNL1       -0.1354
     13 N         139.6770  144.6602  160.4214 N.ar    1  UNL1       -0.2450
     14 H         143.3427  145.8371  157.9234 H       1  UNL1        0.1452
     15 H         141.9061  146.2682  157.1123 H       1  UNL1        0.1452
     16 H         138.7606  144.5135  160.7499 H       1  UNL1        0.1919
     17 C         142.6393  141.2763  167.0794 C.3     1  UNL1        0.0995
     18 C         142.8215  140.0211  167.8800 C.3     1  UNL1        0.1076
     19 C         142.7203  140.8153  169.1484 C.3     1  UNL1        0.0311
     20 C         142.9227  139.2268  166.6116 C.3     1  UNL1        0.0311
     21 C         142.6100  138.7352  170.1277 C.3     1  UNL1        0.1739
     22 O         143.0037  138.7657  168.6806 O.3     1  UNL1       -0.3545
     23 C         140.0466  141.2613  167.2450 C.3     1  UNL1        0.0768
     24 C         139.3622  139.9484  167.0046 C.3     1  UNL1        0.0437
     25 C         139.0775  139.4966  165.6028 C.ar    1  UNL1       -0.0207
     26 C         139.6656  138.2138  165.0943 C.ar    1  UNL1       -0.0034
     27 C         139.3809  137.7620  163.6926 C.ar    1  UNL1        0.0111
     28 C         138.5081  138.5930  162.7994 C.ar    1  UNL1        0.0577
     29 CL        138.2235  138.1412  161.3976 Cl      1  UNL1       -0.0822
     30 C         137.9200  139.8758  163.3079 C.ar    1  UNL1        0.0111
     31 C         138.2047  140.3275  164.7096 C.ar    1  UNL1       -0.0034
@<TRIPOS>BOND
     1    21    22    1
     2    22    18    1
     3    18    19    1
     4    18    20    1
     5    18    17    1
     6    17     1    1
     7     1    23    1
     8    23    24    1
     9    24    25    1
    10    25    26   ar
    11    26    27   ar
    12    27    28   ar
    13    28    29    1
    14    28    30   ar
    15    30    31   ar
    16     1     2    1
    17     2     3    1
    18     3     4    1
    19     4     5    1
    20     5     8    1
    21     8     9   ar
    22     9    10   ar
    23    10    11    1
    24    10    12   ar
    25    12    13   ar
    26     5     6    1
    27     6     7    1
    28    31    25   ar
    29     7     2    1
    30    13     8   ar
    31    11    14    1
    32    11    15    1
    33    13    16    1
@<TRIPOS>MOLECULE
*****
 31 33 0 0 0
SMALL
GASTEIGER

@<TRIPOS>ATOM
      1 N         142.5835  140.1428  167.7472 N.3     1  UNL1       -0.2716
      2 C         141.8416  141.0281  166.7902 C.3     1  UNL1        0.0610
      3 C         142.5749  142.0962  166.0343 C.3     1  UNL1        0.0375
      4 C         141.8330  142.9816  165.0774 C.3     1  UNL1        0.0950
      5 N         140.3578  142.7988  164.8764 N.pl3   1  UNL1       -0.2785
      6 C         139.6245  141.7307  165.6323 C.3     1  UNL1        0.0950
      7 C         140.3664  140.8454  166.5893 C.3     1  UNL1        0.0375
      8 C         139.6159  143.6842  163.9194 C.ar    1  UNL1        0.2163
      9 N         140.1986  144.8290  163.1448 N.ar    1  UNL1       -0.1804
     10 C         139.1038  145.4325  162.3157 C.ar    1  UNL1        0.2331
     11 N         139.2438  146.6024  161.3874 N.pl3   1  UNL1       -0.3262
     12 N         137.8446  144.6608  162.5779 N.ar    1  UNL1       -0.1354
     13 N         138.1611  143.5803  163.5691 N.ar    1  UNL1       -0.2450
     14 H         140.1167  147.0454  161.2819 H       1  UNL1        0.1452
     15 H         138.4628  146.9272  160.8836 H       1  UNL1        0.1452
     16 H         137.5256  142.9190  163.9269 H       1  UNL1        0.1919
     17 C         142.8463  140.6074  169.1490 C.3     1  UNL1        0.0995
     18 C         141.7554  141.2712  169.9359 C.3     1  UNL1        0.1076
     19 C         142.3817  142.6091  169.6754 C.3     1  UNL1        0.0311
     20 C         141.1291  139.9334  170.1963 C.3     1  UNL1        0.0311
     21 C         140.0682  143.2236  170.2389 C.3     1  UNL1        0.1739
     22 O         140.6644  141.9351  170.7228 O.3     1  UNL1       -0.3545
     23 C         143.0627  138.7927  167.3023 C.3     1  UNL1        0.0768
     24 C         143.5892  138.6050  165.9103 C.3     1  UNL1        0.0437
     25 C         142.6362  138.4661  164.7603 C.ar    1  UNL1       -0.0207
     26 C         141.4953  137.4960  164.8447 C.ar    1  UNL1       -0.0034
     27 C         140.5423  137.3571  163.6947 C.ar    1  UNL1        0.0111
     28 C         140.7303  138.1883  162.4603 C.ar    1  UNL1        0.0577
     29 CL        139.7773  138.0494  161.3103 Cl      1  UNL1       -0.0822
     30 C         141.8712  139.1584  162.3759 C.ar    1  UNL1        0.0111
     31 C         142.8242  139.2973  163.5259 C.ar    1  UNL1       -0.0034
@<TRIPOS>BOND
     1    21    22    1
     2    22    18    1
     3    18    19    1
     4    18    20    1
     5    18    17    1
     6    17     1    1
     7     1    23    1
     8    23    24    1
     9    24    25    1
    10    25    26   ar
    11    26    27   ar
    12    27    28   ar
    13    28    29    1
    14    28    30   ar
    15    30    31   ar
    16     1     2    1
    17     2     3    1
    18     3     4    1
    19     4     5    1
    20     5     8    1
    21     8     9   ar
    22     9    10   ar
    23    10    11    1
    24    10    12   ar
    25    12    13   ar
    26     5     6    1
    27     6     7    1
    28    31    25   ar
    29     7     2    1
    30    13     8   ar
    31    11    14    1
    32    11    15    1
    33    13    16    1
@<TRIPOS>MOLECULE
*****
 31 33 0 0 0
SMALL
GASTEIGER

@<TRIPOS>ATOM
      1 N         142.0642  138.2731  163.6771 N.3     1  UNL1       -0.2716
      2 C         142.1205  139.0349  164.9680 C.3     1  UNL1        0.0610
      3 C         142.8501  138.4610  166.1463 C.3     1  UNL1        0.0375
      4 C         142.9064  139.2227  167.4372 C.3     1  UNL1        0.0950
      5 N         142.2332  140.5583  167.5500 N.pl3   1  UNL1       -0.2785
      6 C         141.5035  141.1323  166.3717 C.3     1  UNL1        0.0950
      7 C         141.4472  140.3706  165.0807 C.3     1  UNL1        0.0375
      8 C         142.2895  141.3201  168.8409 C.ar    1  UNL1        0.2163
      9 N         143.1541  142.5127  169.1239 N.ar    1  UNL1       -0.1804
     10 C         142.8900  142.9526  170.5335 C.ar    1  UNL1        0.2331
     11 N         143.5397  144.1101  171.2322 N.pl3   1  UNL1       -0.3262
     12 N         141.8622  142.0319  171.1216 N.ar    1  UNL1       -0.1354
     13 N         141.4911  141.0229  170.0756 N.ar    1  UNL1       -0.2450
     14 H         144.2067  144.6588  170.7597 H       1  UNL1        0.1452
     15 H         143.2991  144.3210  172.1633 H       1  UNL1        0.1452
     16 H         140.8381  140.2937  170.1808 H       1  UNL1        0.1919
     17 C         140.8801  137.4053  163.3693 C.3     1  UNL1        0.0995
     18 C         139.5427  138.0291  163.1008 C.3     1  UNL1        0.1076
     19 C         139.0782  137.6214  164.4675 C.3     1  UNL1        0.0311
     20 C         140.0073  138.4368  161.7341 C.3     1  UNL1        0.0311
     21 C         138.0032  140.1215  163.0609 C.3     1  UNL1        0.1739
     22 O         138.2053  138.6530  162.8322 O.3     1  UNL1       -0.3545
     23 C         143.1921  138.3793  162.6938 C.3     1  UNL1        0.0768
     24 C         144.3773  139.2452  163.0026 C.3     1  UNL1        0.0437
     25 C         144.2162  140.7341  163.0891 C.ar    1  UNL1       -0.0207
     26 C         143.4681  141.4710  162.0181 C.ar    1  UNL1       -0.0034
     27 C         143.3070  142.9598  162.1047 C.ar    1  UNL1        0.0111
     28 C         143.8940  143.7116  163.2623 C.ar    1  UNL1        0.0577
     29 CL        143.7329  145.2005  163.3488 Cl      1  UNL1       -0.0822
     30 C         144.6421  142.9747  164.3334 C.ar    1  UNL1        0.0111
     31 C         144.8032  141.4859  164.2468 C.ar    1  UNL1       -0.0034
@<TRIPOS>BOND
     1    21    22    1
     2    22    18    1
     3    18    19    1
     4    18    20    1
     5    18    17    1
     6    17     1    1
     7     1    23    1
     8    23    24    1
     9    24    25    1
    10    25    26   ar
    11    26    27   ar
    12    27    28   ar
    13    28    29    1
    14    28    30   ar
    15    30    31   ar
    16     1     2    1
    17     2     3    1
    18     3     4    1
    19     4     5    1
    20     5     8    1
    21     8     9   ar
    22     9    10   ar
    23    10    11    1
    24    10    12   ar
    25    12    13   ar
    26     5     6    1
    27     6     7    1
    28    31    25   ar
    29     7     2    1
    30    13     8   ar
    31    11    14    1
    32    11    15    1
    33    13    16    1
@<TRIPOS>MOLECULE
*****
 31 33 0 0 0
SMALL
GASTEIGER

@<TRIPOS>ATOM
      1 N         138.2551  139.7840  163.3166 N.3     1  UNL1       -0.2716
      2 C         138.7182  140.0148  164.7245 C.3     1  UNL1        0.0610
      3 C         139.7927  141.0231  165.0049 C.3     1  UNL1        0.0375
      4 C         140.2557  141.2539  166.4129 C.3     1  UNL1        0.0950
      5 N         139.6444  140.4763  167.5404 N.pl3   1  UNL1       -0.2785
      6 C         138.5698  139.4678  167.2601 C.3     1  UNL1        0.0950
      7 C         138.1068  139.2371  165.8521 C.3     1  UNL1        0.0375
      8 C         140.1074  140.7070  168.9484 C.ar    1  UNL1        0.2163
      9 N         141.1657  141.6784  169.3804 N.ar    1  UNL1       -0.1804
     10 C         141.3059  141.5786  170.8706 C.ar    1  UNL1        0.2331
     11 N         142.2516  142.3725  171.7223 N.pl3   1  UNL1       -0.3262
     12 N         140.3343  140.5457  171.3595 N.ar    1  UNL1       -0.1354
     13 N         139.5936  140.0070  170.1715 N.ar    1  UNL1       -0.2450
     14 H         142.8540  143.0309  171.3066 H       1  UNL1        0.1452
     15 H         142.2699  142.2351  172.6970 H       1  UNL1        0.1452
     16 H         138.8932  139.3154  170.1911 H       1  UNL1        0.1919
     17 C         137.5613  140.8817  162.5659 C.3     1  UNL1        0.0995
     18 C         138.3216  142.1091  162.1594 C.3     1  UNL1        0.1076
     19 C         139.1585  141.2825  161.2287 C.3     1  UNL1        0.0311
     20 C         137.4847  142.9357  163.0902 C.3     1  UNL1        0.0311
     21 C         140.5525  143.2488  161.4709 C.3     1  UNL1        0.1739
     22 O         139.0820  143.3366  161.7530 O.3     1  UNL1       -0.3545
     23 C         138.4859  138.4555  162.6594 C.3     1  UNL1        0.0768
     24 C         139.5199  137.5172  163.2075 C.3     1  UNL1        0.0437
     25 C         140.9070  138.0125  163.4914 C.ar    1  UNL1       -0.0207
     26 C         141.6845  138.7199  162.4213 C.ar    1  UNL1       -0.0034
     27 C         143.0716  139.2152  162.7053 C.ar    1  UNL1        0.0111
     28 C         143.6811  139.0032  164.0593 C.ar    1  UNL1        0.0577
     29 CL        145.0683  139.4986  164.3433 Cl      1  UNL1       -0.0822
     30 C         142.9037  138.2959  165.1294 C.ar    1  UNL1        0.0111
     31 C         141.5166  137.8005  164.8454 C.ar    1  UNL1       -0.0034
@<TRIPOS>BOND
     1    21    22    1
     2    22    18    1
     3    18    19    1
     4    18    20    1
     5    18    17    1
     6    17     1    1
     7     1    23    1
     8    23    24    1
     9    24    25    1
    10    25    26   ar
    11    26    27   ar
    12    27    28   ar
    13    28    29    1
    14    28    30   ar
    15    30    31   ar
    16     1     2    1
    17     2     3    1
    18     3     4    1
    19     4     5    1
    20     5     8    1
    21     8     9   ar
    22     9    10   ar
    23    10    11    1
    24    10    12   ar
    25    12    13   ar
    26     5     6    1
    27     6     7    1
    28    31    25   ar
    29     7     2    1
    30    13     8   ar
    31    11    14    1
    32    11    15    1
    33    13    16    1
@<TRIPOS>MOLECULE
*****
 31 33 0 0 0
SMALL
GASTEIGER

@<TRIPOS>ATOM
      1 N         139.3992  139.0395  163.8873 N.3     1  UNL1       -0.2716
      2 C         139.7909  139.9119  165.0430 C.3     1  UNL1        0.0610
      3 C         140.5884  141.1596  164.8043 C.3     1  UNL1        0.0375
      4 C         140.9802  142.0320  165.9599 C.3     1  UNL1        0.0950
      5 N         140.5744  141.6566  167.3543 N.pl3   1  UNL1       -0.2785
      6 C         139.7768  140.4088  167.5931 C.3     1  UNL1        0.0950
      7 C         139.3851  139.5364  166.4374 C.3     1  UNL1        0.0375
      8 C         140.9661  142.5289  168.5100 C.ar    1  UNL1        0.2163
      9 N         142.2944  142.5252  169.2069 N.ar    1  UNL1       -0.1804
     10 C         142.2475  143.5521  170.2993 C.ar    1  UNL1        0.2331
     11 N         143.3622  143.8826  171.2471 N.pl3   1  UNL1       -0.3262
     12 N         140.8903  144.1905  170.2775 N.ar    1  UNL1       -0.1354
     13 N         140.0984  143.5581  169.1716 N.ar    1  UNL1       -0.2450
     14 H         144.2212  143.4061  171.1820 H       1  UNL1        0.1452
     15 H         143.2348  144.5761  171.9342 H       1  UNL1        0.1452
     16 H         139.1718  143.7797  168.9236 H       1  UNL1        0.1919
     17 C         138.3158  139.4805  162.9483 C.3     1  UNL1        0.0995
     18 C         138.3877  140.8322  162.3021 C.3     1  UNL1        0.1076
     19 C         139.4606  140.3342  161.3797 C.3     1  UNL1        0.0311
     20 C         137.3147  141.3302  163.2244 C.3     1  UNL1        0.0311
     21 C         139.7885  142.8504  161.4567 C.3     1  UNL1        0.1739
     22 O         138.4595  142.1840  161.6559 O.3     1  UNL1       -0.3545
     23 C         140.0909  137.7262  163.6707 C.3     1  UNL1        0.0768
     24 C         141.3108  137.6556  162.8008 C.3     1  UNL1        0.0437
     25 C         142.4657  138.5792  163.0521 C.ar    1  UNL1       -0.0207
     26 C         143.0893  138.6468  164.4147 C.ar    1  UNL1       -0.0034
     27 C         144.2442  139.5704  164.6660 C.ar    1  UNL1        0.0111
     28 C         144.7755  140.4264  163.5547 C.ar    1  UNL1        0.0577
     29 CL        145.9305  141.3500  163.8060 Cl      1  UNL1       -0.0822
     30 C         144.1520  140.3588  162.1921 C.ar    1  UNL1        0.0111
     31 C         142.9971  139.4352  161.9409 C.ar    1  UNL1       -0.0034
@<TRIPOS>BOND
     1    21    22    1
     2    22    18    1
     3    18    19    1
     4    18    20    1
     5    18    17    1
     6    17     1    1
     7     1    23    1
     8    23    24    1
     9    24    25    1
    10    25    26   ar
    11    26    27   ar
    12    27    28   ar
    13    28    29    1
    14    28    30   ar
    15    30    31   ar
    16     1     2    1
    17     2     3    1
    18     3     4    1
    19     4     5    1
    20     5     8    1
    21     8     9   ar
    22     9    10   ar
    23    10    11    1
    24    10    12   ar
    25    12    13   ar
    26     5     6    1
    27     6     7    1
    28    31    25   ar
    29     7     2    1
    30    13     8   ar
    31    11    14    1
    32    11    15    1
    33    13    16    1
@<TRIPOS>MOLECULE
*****
 31 33 0 0 0
SMALL
GASTEIGER

@<TRIPOS>ATOM
      1 N         138.4124  140.6616  162.8405 N.3     1  UNL1       -0.2716
      2 C         138.9652  140.4788  164.2229 C.3     1  UNL1        0.0610
      3 C         138.1478  139.7848  165.2718 C.3     1  UNL1        0.0375
      4 C         138.7006  139.6020  166.6542 C.3     1  UNL1        0.0950
      5 N         140.0708  140.1131  166.9877 N.pl3   1  UNL1       -0.2785
      6 C         140.8883  140.8071  165.9388 C.3     1  UNL1        0.0950
      7 C         140.3355  140.9899  164.5564 C.3     1  UNL1        0.0375
      8 C         140.6236  139.9303  168.3701 C.ar    1  UNL1        0.2163
      9 N         142.0767  139.8879  168.7402 N.ar    1  UNL1       -0.1804
     10 C         142.1714  139.6891  170.2239 C.ar    1  UNL1        0.2331
     11 N         143.4383  139.5885  171.0208 N.pl3   1  UNL1       -0.3262
     12 N         140.7770  139.6086  170.7709 N.ar    1  UNL1       -0.1354
     13 N         139.8204  139.7577  169.6251 N.ar    1  UNL1       -0.2450
     14 H         144.3105  139.6536  170.5689 H       1  UNL1        0.1452
     15 H         143.3975  139.4574  171.9957 H       1  UNL1        0.1452
     16 H         138.8379  139.7445  169.6862 H       1  UNL1        0.1919
     17 C         138.5804  139.5787  161.8163 C.3     1  UNL1        0.0995
     18 C         139.6208  138.5161  162.0122 C.3     1  UNL1        0.1076
     19 C         140.6398  139.3906  161.3439 C.3     1  UNL1        0.0311
     20 C         138.6017  137.6416  162.6805 C.3     1  UNL1        0.0311
     21 C         141.1796  137.1559  163.5838 C.3     1  UNL1        0.1739
     22 O         140.6612  137.4533  162.2081 O.3     1  UNL1       -0.3545
     23 C         137.6917  141.9274  162.4824 C.3     1  UNL1        0.0768
     24 C         138.3836  142.9797  161.6676 C.3     1  UNL1        0.0437
     25 C         139.7060  143.5270  162.1167 C.ar    1  UNL1       -0.0207
     26 C         139.7652  144.5140  163.2447 C.ar    1  UNL1       -0.0034
     27 C         141.0875  145.0613  163.6938 C.ar    1  UNL1        0.0111
     28 C         142.3508  144.6216  163.0149 C.ar    1  UNL1        0.0577
     29 CL        143.6732  145.1690  163.4641 Cl      1  UNL1       -0.0822
     30 C         142.2917  143.6347  161.8869 C.ar    1  UNL1        0.0111
     31 C         140.9693  143.0874  161.4378 C.ar    1  UNL1       -0.0034
@<TRIPOS>BOND
     1    21    22    1
     2    22    18    1
     3    18    19    1
     4    18    20    1
     5    18    17    1
     6    17     1    1
     7     1    23    1
     8    23    24    1
     9    24    25    1
    10    25    26   ar
    11    26    27   ar
    12    27    28   ar
    13    28    29    1
    14    28    30   ar
    15    30    31   ar
    16     1     2    1
    17     2     3    1
    18     3     4    1
    19     4     5    1
    20     5     8    1
    21     8     9   ar
    22     9    10   ar
    23    10    11    1
    24    10    12   ar
    25    12    13   ar
    26     5     6    1
    27     6     7    1
    28    31    25   ar
    29     7     2    1
    30    13     8   ar
    31    11    14    1
    32    11    15    1
    33    13    16    1
