@<TRIPOS>MOLECULE
*****
 41 47 0 0 0
SMALL
GASTEIGER

@<TRIPOS>ATOM
      1 C         140.1111  141.8668  161.0551 C.3     1  UNL1        0.1708
      2 N         140.8361  141.2198  159.9125 N.3     1  UNL1       -0.2797
      3 C         141.1194  139.7471  159.9417 C.3     1  UNL1        0.1167
      4 C         140.6777  138.9214  161.1136 C.3     1  UNL1        0.0511
      5 C         139.9527  139.5685  162.2562 C.2     1  UNL1       -0.0037
      6 C         139.6694  141.0412  162.2270 C.2     1  UNL1        0.0800
      7 N         138.9412  141.3982  163.4888 N.2     1  UNL1       -0.2519
      8 C         138.7745  140.1462  164.2979 C.2     1  UNL1        0.0627
      9 C         138.1342  139.8898  165.6299 C.3     1  UNL1        0.0717
     10 C         138.1191  138.5025  166.2001 C.2     1  UNL1       -0.0198
     11 C         138.7442  137.3716  165.4383 C.2     1  UNL1       -0.0042
     12 C         139.3845  137.6281  164.1063 C.2     1  UNL1        0.0006
     13 C         139.3996  139.0154  163.5361 C.2     1  UNL1        0.0111
     14 H         141.7368  141.6913  159.8304 H       1  UNL1        0.1246
     15 C         139.4610  142.9287  161.8917 C.ar    1  UNL1        0.2512
     16 N         138.0826  143.4860  161.6941 N.ar    1  UNL1       -0.1066
     17 N         137.8450  144.5215  162.7531 N.ar    1  UNL1       -0.0718
     18 C         139.0767  144.6040  163.6052 C.ar    1  UNL1        0.4138
     19 O         139.2748  145.5117  164.7829 O.3     1  UNL1       -0.4642
     20 O         140.0755  143.6197  163.0728 O.2     1  UNL1       -0.3908
     21 H         138.5909  146.0966  165.0439 H       1  UNL1        0.2970
     22 C         141.8445  139.0999  158.7990 C.ar    1  UNL1        0.1319
     23 N         141.7140  137.6687  158.3695 N.ar    1  UNL1       -0.2282
     24 C         142.6162  137.4546  157.1904 C.ar    1  UNL1        0.1171
     25 C         143.3041  138.7535  156.8912 C.ar    1  UNL1        0.0942
     26 N         142.8272  139.7704  157.8855 N.ar    1  UNL1       -0.3385
     27 H         143.1096  140.7125  157.9305 H       1  UNL1        0.1672
     28 C         142.7983  136.1675  156.4418 C.ar    1  UNL1        0.1006
     29 C         142.4336  136.0868  154.9890 C.ar    1  UNL1        0.0230
     30 C         142.6157  134.7998  154.2405 C.ar    1  UNL1        0.0328
     31 C         143.1626  133.5935  154.9446 C.ar    1  UNL1        0.1592
     32 F         143.3447  132.3064  154.1961 F       1  UNL1       -0.2025
     33 C         143.5272  133.6743  156.3974 C.ar    1  UNL1        0.1284
     34 N         143.3451  134.9613  157.1460 N.ar    1  UNL1       -0.2399
     35 N         140.1502  144.6350  158.3346 N.ar    1  UNL1       -0.2497
     36 C         139.6301  143.3355  158.8741 C.ar    1  UNL1        0.0944
     37 C         140.3270  143.0613  160.1738 C.ar    1  UNL1        0.0439
     38 C         141.2777  144.1912  160.4375 C.ar    1  UNL1        0.1194
     39 N         141.1684  145.1638  159.3007 N.ar    1  UNL1       -0.1679
     40 C         140.6416  146.2625  156.3700 C.3     1  UNL1        0.0284
     41 C         139.7263  145.2905  157.0536 C.3     1  UNL1        0.1276
@<TRIPOS>BOND
     1    40    41    1
     2    41    35    1
     3    35    36   ar
     4    36    37   ar
     5     1    37    1
     6     1    15    1
     7    15    16   ar
     8    16    17   ar
     9    17    18   ar
    10    18    19    1
    11    18    20   ar
    12     1     2    1
    13     2     3    1
    14     3    22    1
    15    22    23   ar
    16    23    24   ar
    17    24    28    1
    18    28    29   ar
    19    29    30   ar
    20    30    31   ar
    21    31    32    1
    22    31    33   ar
    23    33    34   ar
    24    24    25   ar
    25    25    26   ar
    26     3     4    1
    27     4     5    1
    28     5     6    2
    29     6     7    1
    30     7     8    2
    31     8     9    1
    32     9    10    1
    33    10    11    2
    34    11    12    1
    35    12    13    2
    36    37    38   ar
    37    38    39   ar
    38    39    35   ar
    39     6     1    1
    40    13     8    1
    41    20    15   ar
    42    26    22   ar
    43    13     5    1
    44    34    28   ar
    45    19    21    1
    46     2    14    1
    47    26    27    1
@<TRIPOS>MOLECULE
*****
 41 47 0 0 0
SMALL
GASTEIGER

@<TRIPOS>ATOM
      1 C         142.5091  143.0789  159.8577 C.3     1  UNL1        0.1708
      2 N         141.9394  143.7120  158.6230 N.3     1  UNL1       -0.2797
      3 C         140.6942  144.5435  158.7128 C.3     1  UNL1        0.1167
      4 C         140.0188  144.7419  160.0374 C.3     1  UNL1        0.0511
      5 C         140.5885  144.1088  161.2721 C.2     1  UNL1       -0.0037
      6 C         141.8337  143.2773  161.1823 C.2     1  UNL1        0.0800
      7 N         142.1604  142.7816  162.5598 N.2     1  UNL1       -0.2519
      8 C         141.1172  143.3068  163.5010 C.2     1  UNL1        0.0627
      9 C         140.9263  143.1441  164.9798 C.3     1  UNL1        0.0717
     10 C         139.7640  143.8016  165.6628 C.2     1  UNL1       -0.0198
     11 C         138.7925  144.6219  164.8670 C.2     1  UNL1       -0.0042
     12 C         138.9833  144.7846  163.3881 C.2     1  UNL1        0.0006
     13 C         140.1456  144.1270  162.7051 C.2     1  UNL1        0.0111
     14 H         141.7415  142.9551  157.9685 H       1  UNL1        0.1246
     15 C         143.4238  142.2805  160.7388 C.ar    1  UNL1        0.2512
     16 N         143.3720  140.7963  160.9487 N.ar    1  UNL1       -0.1066
     17 N         144.4670  140.4249  161.9043 N.ar    1  UNL1       -0.0718
     18 C         145.1955  141.6796  162.2848 C.ar    1  UNL1        0.4138
     19 O         146.3637  141.7714  163.2213 O.3     1  UNL1       -0.4642
     20 O         144.5508  142.8265  161.5644 O.2     1  UNL1       -0.3908
     21 H         146.7006  140.9970  163.6274 H       1  UNL1        0.2970
     22 C         140.1244  145.1767  157.4781 C.ar    1  UNL1        0.1319
     23 N         140.3738  146.5803  157.0118 N.ar    1  UNL1       -0.2282
     24 C         139.6087  146.7885  155.7384 C.ar    1  UNL1        0.1171
     25 C         138.8866  145.5135  155.4178 C.ar    1  UNL1        0.0942
     26 N         139.2053  144.5173  156.4930 N.ar    1  UNL1       -0.3385
     27 H         138.8701  143.5930  156.5433 H       1  UNL1        0.1672
     28 C         139.5723  148.0503  154.9280 C.ar    1  UNL1        0.1006
     29 C         138.9584  149.2927  155.5019 C.ar    1  UNL1        0.0230
     30 C         138.9219  150.5544  154.6915 C.ar    1  UNL1        0.0328
     31 C         139.4993  150.5737  153.3073 C.ar    1  UNL1        0.1592
     32 F         139.4629  151.8354  152.4968 F       1  UNL1       -0.2025
     33 C         140.1132  149.3312  152.7334 C.ar    1  UNL1        0.1284
     34 N         140.1497  148.0695  153.5437 N.ar    1  UNL1       -0.2399
     35 N         145.5442  142.3390  157.5541 N.ar    1  UNL1       -0.2497
     36 C         144.9172  143.0806  158.6974 C.ar    1  UNL1        0.0944
     37 C         143.5022  142.6032  158.8392 C.ar    1  UNL1        0.0439
     38 C         143.2548  141.5666  157.7836 C.ar    1  UNL1        0.1194
     39 N         144.5168  141.4034  156.9893 N.ar    1  UNL1       -0.1679
     40 C         147.3589  141.9160  155.7436 C.3     1  UNL1        0.0284
     41 C         146.9515  142.5042  157.0620 C.3     1  UNL1        0.1276
@<TRIPOS>BOND
     1    40    41    1
     2    41    35    1
     3    35    36   ar
     4    36    37   ar
     5     1    37    1
     6     1    15    1
     7    15    16   ar
     8    16    17   ar
     9    17    18   ar
    10    18    19    1
    11    18    20   ar
    12     1     2    1
    13     2     3    1
    14     3    22    1
    15    22    23   ar
    16    23    24   ar
    17    24    28    1
    18    28    29   ar
    19    29    30   ar
    20    30    31   ar
    21    31    32    1
    22    31    33   ar
    23    33    34   ar
    24    24    25   ar
    25    25    26   ar
    26     3     4    1
    27     4     5    1
    28     5     6    2
    29     6     7    1
    30     7     8    2
    31     8     9    1
    32     9    10    1
    33    10    11    2
    34    11    12    1
    35    12    13    2
    36    37    38   ar
    37    38    39   ar
    38    39    35   ar
    39     6     1    1
    40    13     8    1
    41    20    15   ar
    42    26    22   ar
    43    13     5    1
    44    34    28   ar
    45    19    21    1
    46     2    14    1
    47    26    27    1
@<TRIPOS>MOLECULE
*****
 41 47 0 0 0
SMALL
GASTEIGER

@<TRIPOS>ATOM
      1 C         142.6018  143.6256  158.7748 C.3     1  UNL1        0.1708
      2 N         143.4907  143.2404  157.6296 N.3     1  UNL1       -0.2797
      3 C         144.8026  142.5628  157.8935 C.3     1  UNL1        0.1167
      4 C         145.2257  142.2704  159.3026 C.3     1  UNL1        0.0511
      5 C         144.3368  142.6556  160.4478 C.2     1  UNL1       -0.0037
      6 C         143.0249  143.3332  160.1839 C.2     1  UNL1        0.0800
      7 N         142.3637  143.5935  161.5049 N.2     1  UNL1       -0.2519
      8 C         143.2670  143.0768  162.5852 C.2     1  UNL1        0.0627
      9 C         143.1367  143.0593  164.0794 C.3     1  UNL1        0.0717
     10 C         144.2258  142.4621  164.9203 C.2     1  UNL1       -0.0198
     11 C         145.4453  141.8824  164.2669 C.2     1  UNL1       -0.0042
     12 C         145.5756  141.8999  162.7727 C.2     1  UNL1        0.0006
     13 C         144.4865  142.4971  161.9319 C.2     1  UNL1        0.0111
     14 H         143.6997  144.0976  157.1178 H       1  UNL1        0.1246
     15 C         141.4239  144.1791  159.5207 C.ar    1  UNL1        0.2512
     16 N         140.1746  143.4295  159.8772 N.ar    1  UNL1       -0.1066
     17 N         139.2672  144.3666  160.6178 N.ar    1  UNL1       -0.0718
     18 C         139.9558  145.6953  160.7190 C.ar    1  UNL1        0.4138
     19 O         139.4076  146.9242  161.3820 O.3     1  UNL1       -0.4642
     20 O         141.2887  145.5794  160.0410 O.2     1  UNL1       -0.3908
     21 H         138.5605  146.9025  161.7819 H       1  UNL1        0.2970
     22 C         145.6916  142.1775  156.7483 C.ar    1  UNL1        0.1319
     23 N         147.0474  142.7476  156.4542 N.ar    1  UNL1       -0.2282
     24 C         147.5745  142.0771  155.2203 C.ar    1  UNL1        0.1171
     25 C         146.5444  141.0925  154.7518 C.ar    1  UNL1        0.0942
     26 N         145.3806  141.1546  155.6962 N.ar    1  UNL1       -0.3385
     27 H         144.5573  140.6182  155.6360 H       1  UNL1        0.1672
     28 C         148.8993  142.3442  154.5692 C.ar    1  UNL1        0.1006
     29 C         148.9818  143.2625  153.3860 C.ar    1  UNL1        0.0230
     30 C         150.3064  143.5296  152.7349 C.ar    1  UNL1        0.0328
     31 C         151.5485  142.8784  153.2670 C.ar    1  UNL1        0.1592
     32 F         152.8732  143.1455  152.6159 F       1  UNL1       -0.2025
     33 C         151.4660  141.9601  154.4502 C.ar    1  UNL1        0.1284
     34 N         150.1413  141.6930  155.1013 N.ar    1  UNL1       -0.2399
     35 N         140.7570  145.5495  155.9534 N.ar    1  UNL1       -0.2497
     36 C         141.7141  145.5173  157.1080 C.ar    1  UNL1        0.0944
     37 C         141.7697  144.1102  157.6248 C.ar    1  UNL1        0.0439
     38 C         140.8470  143.2728  156.7896 C.ar    1  UNL1        0.1194
     39 N         140.2211  144.1624  155.7566 N.ar    1  UNL1       -0.1679
     40 C         139.1773  147.5574  155.4812 C.3     1  UNL1        0.0284
     41 C         140.3987  146.7569  155.1386 C.3     1  UNL1        0.1276
@<TRIPOS>BOND
     1    40    41    1
     2    41    35    1
     3    35    36   ar
     4    36    37   ar
     5     1    37    1
     6     1    15    1
     7    15    16   ar
     8    16    17   ar
     9    17    18   ar
    10    18    19    1
    11    18    20   ar
    12     1     2    1
    13     2     3    1
    14     3    22    1
    15    22    23   ar
    16    23    24   ar
    17    24    28    1
    18    28    29   ar
    19    29    30   ar
    20    30    31   ar
    21    31    32    1
    22    31    33   ar
    23    33    34   ar
    24    24    25   ar
    25    25    26   ar
    26     3     4    1
    27     4     5    1
    28     5     6    2
    29     6     7    1
    30     7     8    2
    31     8     9    1
    32     9    10    1
    33    10    11    2
    34    11    12    1
    35    12    13    2
    36    37    38   ar
    37    38    39   ar
    38    39    35   ar
    39     6     1    1
    40    13     8    1
    41    20    15   ar
    42    26    22   ar
    43    13     5    1
    44    34    28   ar
    45    19    21    1
    46     2    14    1
    47    26    27    1
@<TRIPOS>MOLECULE
*****
 41 47 0 0 0
SMALL
GASTEIGER

@<TRIPOS>ATOM
      1 C         140.7805  141.0827  159.6658 C.3     1  UNL1        0.1708
      2 N         141.1459  139.9952  158.6994 N.3     1  UNL1       -0.2797
      3 C         142.4618  139.2870  158.8299 C.3     1  UNL1        0.1167
      4 C         143.4121  139.6663  159.9268 C.3     1  UNL1        0.0511
      5 C         143.0467  140.7538  160.8931 C.2     1  UNL1       -0.0037
      6 C         141.7308  141.4620  160.7626 C.2     1  UNL1        0.0800
      7 N         141.6454  142.4862  161.8551 N.2     1  UNL1       -0.2519
      8 C         142.9084  142.4110  162.6608 C.2     1  UNL1        0.0627
      9 C         143.3818  143.1792  163.8591 C.3     1  UNL1        0.0717
     10 C         144.7212  142.8766  164.4627 C.2     1  UNL1       -0.0198
     11 C         145.5872  141.8059  163.8681 C.2     1  UNL1       -0.0042
     12 C         145.1139  141.0377  162.6699 C.2     1  UNL1        0.0006
     13 C         143.7745  141.3403  162.0662 C.2     1  UNL1        0.0111
     14 H         141.1260  140.4101  157.7679 H       1  UNL1        0.1246
     15 C         139.9896  142.1696  160.3315 C.ar    1  UNL1        0.2512
     16 N         140.0721  143.6352  160.0234 N.ar    1  UNL1       -0.1066
     17 N         139.1108  144.3530  160.9238 N.ar    1  UNL1       -0.0718
     18 C         138.4342  143.3310  161.7884 C.ar    1  UNL1        0.4138
     19 O         137.3966  143.6095  162.8352 O.3     1  UNL1       -0.4642
     20 O         138.9773  141.9815  161.4224 O.2     1  UNL1       -0.3908
     21 H         137.1172  144.4894  162.9955 H       1  UNL1        0.2970
     22 C         142.8273  138.1994  157.8636 C.ar    1  UNL1        0.1319
     23 N         142.4825  136.7461  158.0004 N.ar    1  UNL1       -0.2282
     24 C         143.0438  136.0227  156.8122 C.ar    1  UNL1        0.1171
     25 C         143.7355  137.0291  155.9412 C.ar    1  UNL1        0.0942
     26 N         143.6017  138.3744  156.5910 N.ar    1  UNL1       -0.3385
     27 H         143.9594  139.2232  156.2433 H       1  UNL1        0.1672
     28 C         142.9329  134.5513  156.5424 C.ar    1  UNL1        0.1006
     29 C         141.8291  134.0297  155.6709 C.ar    1  UNL1        0.0230
     30 C         141.7182  132.5584  155.4011 C.ar    1  UNL1        0.0328
     31 C         142.7110  131.6086  156.0029 C.ar    1  UNL1        0.1592
     32 F         142.6001  130.1372  155.7332 F       1  UNL1       -0.2025
     33 C         143.8148  132.1302  156.8745 C.ar    1  UNL1        0.1284
     34 N         143.9258  133.6016  157.1442 N.ar    1  UNL1       -0.2399
     35 N         137.9720  141.6148  157.0401 N.ar    1  UNL1       -0.2497
     36 C         139.3236  141.9484  157.5986 C.ar    1  UNL1        0.0944
     37 C         139.5555  141.0809  158.8002 C.ar    1  UNL1        0.0439
     38 C         138.3471  140.2113  158.9842 C.ar    1  UNL1        0.1194
     39 N         137.3685  140.5413  157.8964 N.ar    1  UNL1       -0.1679
     40 C         137.3105  143.7376  155.6960 C.3     1  UNL1        0.0284
     41 C         137.3356  142.2444  155.8364 C.3     1  UNL1        0.1276
@<TRIPOS>BOND
     1    40    41    1
     2    41    35    1
     3    35    36   ar
     4    36    37   ar
     5     1    37    1
     6     1    15    1
     7    15    16   ar
     8    16    17   ar
     9    17    18   ar
    10    18    19    1
    11    18    20   ar
    12     1     2    1
    13     2     3    1
    14     3    22    1
    15    22    23   ar
    16    23    24   ar
    17    24    28    1
    18    28    29   ar
    19    29    30   ar
    20    30    31   ar
    21    31    32    1
    22    31    33   ar
    23    33    34   ar
    24    24    25   ar
    25    25    26   ar
    26     3     4    1
    27     4     5    1
    28     5     6    2
    29     6     7    1
    30     7     8    2
    31     8     9    1
    32     9    10    1
    33    10    11    2
    34    11    12    1
    35    12    13    2
    36    37    38   ar
    37    38    39   ar
    38    39    35   ar
    39     6     1    1
    40    13     8    1
    41    20    15   ar
    42    26    22   ar
    43    13     5    1
    44    34    28   ar
    45    19    21    1
    46     2    14    1
    47    26    27    1
@<TRIPOS>MOLECULE
*****
 41 47 0 0 0
SMALL
GASTEIGER

@<TRIPOS>ATOM
      1 C         141.7979  141.7986  160.3332 C.3     1  UNL1        0.1708
      2 N         141.4194  142.5182  159.0727 N.3     1  UNL1       -0.2797
      3 C         140.5038  143.7048  159.1327 C.3     1  UNL1        0.1167
      4 C         139.9666  144.1717  160.4531 C.3     1  UNL1        0.0511
      5 C         140.3451  143.4521  161.7135 C.2     1  UNL1       -0.0037
      6 C         141.2607  142.2655  161.6536 C.2     1  UNL1        0.0800
      7 N         141.4565  141.7601  163.0522 N.2     1  UNL1       -0.2519
      8 C         140.6619  142.6342  163.9766 C.2     1  UNL1        0.0627
      9 C         140.4751  142.6131  165.4647 C.3     1  UNL1        0.0717
     10 C         139.6013  143.6377  166.1255 C.2     1  UNL1       -0.0198
     11 C         138.9144  144.6835  165.2981 C.2     1  UNL1       -0.0042
     12 C         139.1012  144.7046  163.8100 C.2     1  UNL1        0.0006
     13 C         139.9750  143.6800  163.1492 C.2     1  UNL1        0.0111
     14 H         140.9726  141.8319  158.4646 H       1  UNL1        0.1246
     15 C         142.4405  140.7958  161.2452 C.ar    1  UNL1        0.2512
     16 N         141.8812  139.4537  161.6137 N.ar    1  UNL1       -0.1066
     17 N         142.8503  138.7876  162.5450 N.ar    1  UNL1       -0.0718
     18 C         144.0083  139.7181  162.7520 C.ar    1  UNL1        0.4138
     19 O         145.2090  139.4538  163.6116 O.3     1  UNL1       -0.4642
     20 O         143.7551  140.9593  161.9487 O.2     1  UNL1       -0.3908
     21 H         145.2814  138.6452  164.0794 H       1  UNL1        0.2970
     22 C         140.1252  144.4245  157.8721 C.ar    1  UNL1        0.1319
     23 N         140.0980  145.9119  157.6805 N.ar    1  UNL1       -0.2282
     24 C         139.6635  146.1899  156.2719 C.ar    1  UNL1        0.1171
     25 C         139.4221  144.8742  155.5932 C.ar    1  UNL1        0.0942
     26 N         139.7075  143.7832  156.5822 N.ar    1  UNL1       -0.3385
     27 H         139.6336  142.8159  156.4141 H       1  UNL1        0.1672
     28 C         139.4991  147.5456  155.6512 C.ar    1  UNL1        0.1006
     29 C         140.1112  147.8369  154.3131 C.ar    1  UNL1        0.0230
     30 C         139.9469  149.1925  153.6923 C.ar    1  UNL1        0.0328
     31 C         139.1705  150.2567  154.4097 C.ar    1  UNL1        0.1592
     32 F         139.0062  151.6124  153.7889 F       1  UNL1       -0.2025
     33 C         138.5585  149.9654  155.7478 C.ar    1  UNL1        0.1284
     34 N         138.7228  148.6098  156.3685 N.ar    1  UNL1       -0.2399
     35 N         143.1150  139.3177  157.6545 N.ar    1  UNL1       -0.2497
     36 C         142.0127  139.8387  158.5283 C.ar    1  UNL1        0.0944
     37 C         142.5582  140.9834  159.3295 C.ar    1  UNL1        0.0439
     38 C         143.9977  141.1699  158.9509 C.ar    1  UNL1        0.1194
     39 N         144.3417  140.1403  157.9156 N.ar    1  UNL1       -0.1679
     40 C         142.4363  136.8633  157.1390 C.3     1  UNL1        0.0284
     41 C         143.0091  138.1746  156.6889 C.3     1  UNL1        0.1276
@<TRIPOS>BOND
     1    40    41    1
     2    41    35    1
     3    35    36   ar
     4    36    37   ar
     5     1    37    1
     6     1    15    1
     7    15    16   ar
     8    16    17   ar
     9    17    18   ar
    10    18    19    1
    11    18    20   ar
    12     1     2    1
    13     2     3    1
    14     3    22    1
    15    22    23   ar
    16    23    24   ar
    17    24    28    1
    18    28    29   ar
    19    29    30   ar
    20    30    31   ar
    21    31    32    1
    22    31    33   ar
    23    33    34   ar
    24    24    25   ar
    25    25    26   ar
    26     3     4    1
    27     4     5    1
    28     5     6    2
    29     6     7    1
    30     7     8    2
    31     8     9    1
    32     9    10    1
    33    10    11    2
    34    11    12    1
    35    12    13    2
    36    37    38   ar
    37    38    39   ar
    38    39    35   ar
    39     6     1    1
    40    13     8    1
    41    20    15   ar
    42    26    22   ar
    43    13     5    1
    44    34    28   ar
    45    19    21    1
    46     2    14    1
    47    26    27    1
@<TRIPOS>MOLECULE
*****
 41 47 0 0 0
SMALL
GASTEIGER

@<TRIPOS>ATOM
      1 C         141.6664  141.7666  158.7270 C.3     1  UNL1        0.1708
      2 N         141.5733  140.4838  157.9551 N.3     1  UNL1       -0.2797
      3 C         142.2714  139.2545  158.4564 C.3     1  UNL1        0.1167
      4 C         143.0627  139.3079  159.7297 C.3     1  UNL1        0.0511
      5 C         143.1559  140.5906  160.5016 C.2     1  UNL1       -0.0037
      6 C         142.4577  141.8200  160.0003 C.2     1  UNL1        0.0800
      7 N         142.7276  142.9335  160.9683 N.2     1  UNL1       -0.2519
      8 C         143.5926  142.3924  162.0679 C.2     1  UNL1        0.0627
      9 C         144.1733  143.0311  163.2945 C.3     1  UNL1        0.0717
     10 C         145.0188  142.2218  164.2327 C.2     1  UNL1       -0.0198
     11 C         145.2835  140.7738  163.9442 C.2     1  UNL1       -0.0042
     12 C         144.7027  140.1351  162.7176 C.2     1  UNL1        0.0006
     13 C         143.8572  140.9444  161.7794 C.2     1  UNL1        0.0111
     14 H         141.9431  140.6732  157.0236 H       1  UNL1        0.1246
     15 C         141.4599  143.2042  159.1021 C.ar    1  UNL1        0.2512
     16 N         142.3143  144.3593  158.6713 N.ar    1  UNL1       -0.1066
     17 N         141.7450  145.6081  159.2768 N.ar    1  UNL1       -0.0718
     18 C         140.5388  145.2247  160.0817 C.ar    1  UNL1        0.4138
     19 O         139.6626  146.1624  160.8582 O.3     1  UNL1       -0.4642
     20 O         140.3625  143.7390  159.9737 O.2     1  UNL1       -0.3908
     21 H         139.8512  147.0802  160.8678 H       1  UNL1        0.2970
     22 C         142.1783  137.9716  157.6845 C.ar    1  UNL1        0.1319
     23 N         143.1008  136.7960  157.8138 N.ar    1  UNL1       -0.2282
     24 C         142.6390  135.7371  156.8571 C.ar    1  UNL1        0.1171
     25 C         141.4311  136.2583  156.1365 C.ar    1  UNL1        0.0942
     26 N         141.1464  137.6394  156.6479 N.ar    1  UNL1       -0.3385
     27 H         140.4113  138.2249  156.3546 H       1  UNL1        0.1672
     28 C         143.2738  134.3928  156.6562 C.ar    1  UNL1        0.1006
     29 C         144.0940  133.7794  157.7521 C.ar    1  UNL1        0.0230
     30 C         144.7287  132.4353  157.5512 C.ar    1  UNL1        0.0328
     31 C         144.5432  131.7046  156.2545 C.ar    1  UNL1        0.1592
     32 F         145.1779  130.3604  156.0536 F       1  UNL1       -0.2025
     33 C         143.7230  132.3180  155.1586 C.ar    1  UNL1        0.1284
     34 N         143.0883  133.6621  155.3594 N.ar    1  UNL1       -0.2399
     35 N         138.8750  142.8882  156.2745 N.ar    1  UNL1       -0.2497
     36 C         139.3246  142.4577  157.6393 C.ar    1  UNL1        0.0944
     37 C         140.8034  142.2124  157.5841 C.ar    1  UNL1        0.0439
     38 C         141.2677  142.4913  156.1853 C.ar    1  UNL1        0.1194
     39 N         140.0758  142.9090  155.3759 N.ar    1  UNL1       -0.1679
     40 C         137.2108  144.4375  155.0175 C.3     1  UNL1        0.0284
     41 C         137.4709  143.2368  155.8780 C.3     1  UNL1        0.1276
@<TRIPOS>BOND
     1    40    41    1
     2    41    35    1
     3    35    36   ar
     4    36    37   ar
     5     1    37    1
     6     1    15    1
     7    15    16   ar
     8    16    17   ar
     9    17    18   ar
    10    18    19    1
    11    18    20   ar
    12     1     2    1
    13     2     3    1
    14     3    22    1
    15    22    23   ar
    16    23    24   ar
    17    24    28    1
    18    28    29   ar
    19    29    30   ar
    20    30    31   ar
    21    31    32    1
    22    31    33   ar
    23    33    34   ar
    24    24    25   ar
    25    25    26   ar
    26     3     4    1
    27     4     5    1
    28     5     6    2
    29     6     7    1
    30     7     8    2
    31     8     9    1
    32     9    10    1
    33    10    11    2
    34    11    12    1
    35    12    13    2
    36    37    38   ar
    37    38    39   ar
    38    39    35   ar
    39     6     1    1
    40    13     8    1
    41    20    15   ar
    42    26    22   ar
    43    13     5    1
    44    34    28   ar
    45    19    21    1
    46     2    14    1
    47    26    27    1
@<TRIPOS>MOLECULE
*****
 41 47 0 0 0
SMALL
GASTEIGER

@<TRIPOS>ATOM
      1 C         140.2601  142.1860  161.0986 C.3     1  UNL1        0.1708
      2 N         141.0494  141.6572  159.9379 N.3     1  UNL1       -0.2797
      3 C         141.3888  140.1980  159.8643 C.3     1  UNL1        0.1167
      4 C         140.9390  139.2675  160.9515 C.3     1  UNL1        0.0511
      5 C         140.1497  139.7963  162.1122 C.2     1  UNL1       -0.0037
      6 C         139.8103  141.2555  162.1858 C.2     1  UNL1        0.0800
      7 N         139.0250  141.4859  163.4429 N.2     1  UNL1       -0.2519
      8 C         138.8791  140.1690  164.1462 C.2     1  UNL1        0.0627
      9 C         138.2031  139.7859  165.4292 C.3     1  UNL1        0.0717
     10 C         138.2223  138.3585  165.8898 C.2     1  UNL1       -0.0198
     11 C         138.9174  137.3143  165.0674 C.2     1  UNL1       -0.0042
     12 C         139.5934  137.6974  163.7844 C.2     1  UNL1        0.0006
     13 C         139.5743  139.1248  163.3238 C.2     1  UNL1        0.0111
     14 H         141.9333  142.1661  159.9266 H       1  UNL1        0.1246
     15 C         139.5402  143.1547  161.9893 C.ar    1  UNL1        0.2512
     16 N         138.1578  143.6939  161.7704 N.ar    1  UNL1       -0.1066
     17 N         137.8396  144.6268  162.9011 N.ar    1  UNL1       -0.0718
     18 C         139.0254  144.6641  163.8189 C.ar    1  UNL1        0.4138
     19 O         139.1401  145.4698  165.0790 O.3     1  UNL1       -0.4642
     20 O         140.0765  143.7543  163.2553 O.2     1  UNL1       -0.3908
     21 H         138.4280  146.0131  165.3541 H       1  UNL1        0.2970
     22 C         142.1782  139.6691  158.7034 C.ar    1  UNL1        0.1319
     23 N         143.0074  140.4849  157.7564 N.ar    1  UNL1       -0.2282
     24 C         143.6185  139.5517  156.7536 C.ar    1  UNL1        0.1171
     25 C         143.1670  138.1592  157.0809 C.ar    1  UNL1        0.0942
     26 N         142.2768  138.2318  158.2860 N.ar    1  UNL1       -0.3385
     27 H         141.8349  137.4699  158.7257 H       1  UNL1        0.1672
     28 C         144.5225  139.9424  155.6221 C.ar    1  UNL1        0.1006
     29 C         144.2522  139.4350  154.2366 C.ar    1  UNL1        0.0230
     30 C         145.1561  139.8257  153.1052 C.ar    1  UNL1        0.0328
     31 C         146.3303  140.7238  153.3591 C.ar    1  UNL1        0.1592
     32 F         147.2343  141.1145  152.2276 F       1  UNL1       -0.2025
     33 C         146.6007  141.2312  154.7446 C.ar    1  UNL1        0.1284
     34 N         145.6967  140.8405  155.8761 N.ar    1  UNL1       -0.2399
     35 N         140.2800  145.1620  158.6070 N.ar    1  UNL1       -0.2497
     36 C         139.7887  143.8085  159.0273 C.ar    1  UNL1        0.0944
     37 C         140.4599  143.4529  160.3208 C.ar    1  UNL1        0.0439
     38 C         141.3660  144.5866  160.6999 C.ar    1  UNL1        0.1194
     39 N         141.2548  145.6429  159.6407 N.ar    1  UNL1       -0.1679
     40 C         140.7891  145.9584  156.1870 C.3     1  UNL1        0.0284
     41 C         139.8687  145.9044  157.3702 C.3     1  UNL1        0.1276
@<TRIPOS>BOND
     1    40    41    1
     2    41    35    1
     3    35    36   ar
     4    36    37   ar
     5     1    37    1
     6     1    15    1
     7    15    16   ar
     8    16    17   ar
     9    17    18   ar
    10    18    19    1
    11    18    20   ar
    12     1     2    1
    13     2     3    1
    14     3    22    1
    15    22    23   ar
    16    23    24   ar
    17    24    28    1
    18    28    29   ar
    19    29    30   ar
    20    30    31   ar
    21    31    32    1
    22    31    33   ar
    23    33    34   ar
    24    24    25   ar
    25    25    26   ar
    26     3     4    1
    27     4     5    1
    28     5     6    2
    29     6     7    1
    30     7     8    2
    31     8     9    1
    32     9    10    1
    33    10    11    2
    34    11    12    1
    35    12    13    2
    36    37    38   ar
    37    38    39   ar
    38    39    35   ar
    39     6     1    1
    40    13     8    1
    41    20    15   ar
    42    26    22   ar
    43    13     5    1
    44    34    28   ar
    45    19    21    1
    46     2    14    1
    47    26    27    1
@<TRIPOS>MOLECULE
*****
 41 47 0 0 0
SMALL
GASTEIGER

@<TRIPOS>ATOM
      1 C         141.0355  141.9263  159.7813 C.3     1  UNL1        0.1708
      2 N         141.9510  141.6433  158.6274 N.3     1  UNL1       -0.2797
      3 C         143.4352  141.6003  158.8406 C.3     1  UNL1        0.1167
      4 C         144.0038  141.8403  160.2078 C.3     1  UNL1        0.0511
      5 C         143.0882  142.1233  161.3618 C.2     1  UNL1       -0.0037
      6 C         141.6041  142.1663  161.1485 C.2     1  UNL1        0.0800
      7 N         140.9549  142.4668  162.4670 N.2     1  UNL1       -0.2519
      8 C         142.0379  142.6095  163.4950 C.2     1  UNL1        0.0627
      9 C         141.9937  142.9053  164.9649 C.3     1  UNL1        0.0717
     10 C         143.2681  142.9888  165.7517 C.2     1  UNL1       -0.0198
     11 C         144.5865  142.7765  165.0686 C.2     1  UNL1       -0.0042
     12 C         144.6307  142.4807  163.5987 C.2     1  UNL1        0.0006
     13 C         143.3563  142.3972  162.8120 C.2     1  UNL1        0.0111
     14 H         141.7748  142.3645  157.9280 H       1  UNL1        0.1246
     15 C         139.7698  142.1534  160.5537 C.ar    1  UNL1        0.2512
     16 N         139.0142  143.4457  160.6479 N.ar    1  UNL1       -0.1066
     17 N         137.8149  143.2189  161.5199 N.ar    1  UNL1       -0.0718
     18 C         137.8294  141.7865  161.9646 C.ar    1  UNL1        0.4138
     19 O         136.8139  141.1281  162.8509 O.3     1  UNL1       -0.4642
     20 O         139.0376  141.1279  161.3675 O.2     1  UNL1       -0.3908
     21 H         136.0880  141.6216  163.1787 H       1  UNL1        0.2970
     22 C         144.3508  141.3173  157.6866 C.ar    1  UNL1        0.1319
     23 N         145.3811  142.2537  157.1285 N.ar    1  UNL1       -0.2282
     24 C         146.0640  141.5633  155.9852 C.ar    1  UNL1        0.1171
     25 C         145.4556  140.2003  155.8367 C.ar    1  UNL1        0.0942
     26 N         144.3968  140.0482  156.8883 N.ar    1  UNL1       -0.3385
     27 H         143.8314  139.2548  157.0297 H       1  UNL1        0.1672
     28 C         147.1623  142.1356  155.1389 C.ar    1  UNL1        0.1006
     29 C         146.8684  143.2557  154.1854 C.ar    1  UNL1        0.0230
     30 C         147.9666  143.8279  153.3392 C.ar    1  UNL1        0.0328
     31 C         149.3589  143.2802  153.4463 C.ar    1  UNL1        0.1592
     32 F         150.4573  143.8524  152.6000 F       1  UNL1       -0.2025
     33 C         149.6529  142.1601  154.3997 C.ar    1  UNL1        0.1284
     34 N         148.5546  141.5878  155.2460 N.ar    1  UNL1       -0.2399
     35 N         138.6735  142.1847  156.7122 N.ar    1  UNL1       -0.2497
     36 C         139.7544  142.7505  157.5849 C.ar    1  UNL1        0.0944
     37 C         140.0273  141.7652  158.6825 C.ar    1  UNL1        0.0439
     38 C         139.1150  140.5904  158.4882 C.ar    1  UNL1        0.1194
     39 N         138.2783  140.8497  157.2705 N.ar    1  UNL1       -0.1679
     40 C         136.7073  143.4182  155.5449 C.3     1  UNL1        0.0284
     41 C         138.0901  142.8390  155.4950 C.3     1  UNL1        0.1276
@<TRIPOS>BOND
     1    40    41    1
     2    41    35    1
     3    35    36   ar
     4    36    37   ar
     5     1    37    1
     6     1    15    1
     7    15    16   ar
     8    16    17   ar
     9    17    18   ar
    10    18    19    1
    11    18    20   ar
    12     1     2    1
    13     2     3    1
    14     3    22    1
    15    22    23   ar
    16    23    24   ar
    17    24    28    1
    18    28    29   ar
    19    29    30   ar
    20    30    31   ar
    21    31    32    1
    22    31    33   ar
    23    33    34   ar
    24    24    25   ar
    25    25    26   ar
    26     3     4    1
    27     4     5    1
    28     5     6    2
    29     6     7    1
    30     7     8    2
    31     8     9    1
    32     9    10    1
    33    10    11    2
    34    11    12    1
    35    12    13    2
    36    37    38   ar
    37    38    39   ar
    38    39    35   ar
    39     6     1    1
    40    13     8    1
    41    20    15   ar
    42    26    22   ar
    43    13     5    1
    44    34    28   ar
    45    19    21    1
    46     2    14    1
    47    26    27    1
@<TRIPOS>MOLECULE
*****
 41 47 0 0 0
SMALL
GASTEIGER

@<TRIPOS>ATOM
      1 C         141.7619  143.4518  159.7330 C.3     1  UNL1        0.1708
      2 N         142.1259  142.8898  161.0753 N.3     1  UNL1       -0.2797
      3 C         143.2984  141.9638  161.2078 C.3     1  UNL1        0.1167
      4 C         144.1070  141.5997  159.9979 C.3     1  UNL1        0.0511
      5 C         143.7431  142.1616  158.6557 C.2     1  UNL1       -0.0037
      6 C         142.5705  143.0877  158.5232 C.2     1  UNL1        0.0800
      7 N         142.4524  143.4825  157.0809 N.2     1  UNL1       -0.2519
      8 C         143.5518  142.8005  156.3220 C.2     1  UNL1        0.0627
      9 C         143.9297  142.8173  154.8705 C.3     1  UNL1        0.0717
     10 C         145.1053  142.0178  154.3923 C.2     1  UNL1       -0.0198
     11 C         145.9030  141.2014  155.3655 C.2     1  UNL1       -0.0042
     12 C         145.5251  141.1846  156.8170 C.2     1  UNL1        0.0006
     13 C         144.3496  141.9841  157.2953 C.2     1  UNL1        0.0111
     14 H         141.3089  142.3807  161.4127 H       1  UNL1        0.1246
     15 C         141.0287  144.2347  158.6843 C.ar    1  UNL1        0.2512
     16 N         139.7769  143.8057  157.9782 N.ar    1  UNL1       -0.1066
     17 N         139.3932  144.8899  157.0151 N.ar    1  UNL1       -0.0718
     18 C         140.4080  145.9889  157.1262 C.ar    1  UNL1        0.4138
     19 O         140.4114  147.2683  156.3431 O.3     1  UNL1       -0.4642
     20 O         141.4188  145.5839  158.1579 O.2     1  UNL1       -0.3908
     21 H         139.7352  147.4358  155.7165 H       1  UNL1        0.2970
     22 C         143.6624  141.4018  162.5501 C.ar    1  UNL1        0.1319
     23 N         142.9472  141.6692  163.8412 N.ar    1  UNL1       -0.2282
     24 C         143.6482  140.9065  164.9260 C.ar    1  UNL1        0.1171
     25 C         144.7966  140.1676  164.3053 C.ar    1  UNL1        0.0942
     26 N         144.8054  140.4737  162.8369 N.ar    1  UNL1       -0.3385
     27 H         145.4484  140.1265  162.1772 H       1  UNL1        0.1672
     28 C         143.2676  140.8861  166.3768 C.ar    1  UNL1        0.1006
     29 C         143.2445  142.1627  167.1641 C.ar    1  UNL1        0.0230
     30 C         142.8640  142.1424  168.6148 C.ar    1  UNL1        0.0328
     31 C         142.5065  140.8456  169.2783 C.ar    1  UNL1        0.1592
     32 F         142.1258  140.8252  170.7291 F       1  UNL1       -0.2025
     33 C         142.5295  139.5690  168.4910 C.ar    1  UNL1        0.1284
     34 N         142.9101  139.5892  167.0403 N.ar    1  UNL1       -0.2399
     35 N         138.8322  144.3878  162.1006 N.ar    1  UNL1       -0.2497
     36 C         139.7010  143.3634  161.4329 C.ar    1  UNL1        0.0944
     37 C         140.6987  144.0878  160.5786 C.ar    1  UNL1        0.0439
     38 C         140.4465  145.5598  160.7184 C.ar    1  UNL1        0.1194
     39 N         139.2929  145.7453  161.6591 N.ar    1  UNL1       -0.1679
     40 C         137.9673  143.9665  164.5141 C.3     1  UNL1        0.0284
     41 C         137.7011  144.1045  163.0443 C.3     1  UNL1        0.1276
@<TRIPOS>BOND
     1    40    41    1
     2    41    35    1
     3    35    36   ar
     4    36    37   ar
     5     1    37    1
     6     1    15    1
     7    15    16   ar
     8    16    17   ar
     9    17    18   ar
    10    18    19    1
    11    18    20   ar
    12     1     2    1
    13     2     3    1
    14     3    22    1
    15    22    23   ar
    16    23    24   ar
    17    24    28    1
    18    28    29   ar
    19    29    30   ar
    20    30    31   ar
    21    31    32    1
    22    31    33   ar
    23    33    34   ar
    24    24    25   ar
    25    25    26   ar
    26     3     4    1
    27     4     5    1
    28     5     6    2
    29     6     7    1
    30     7     8    2
    31     8     9    1
    32     9    10    1
    33    10    11    2
    34    11    12    1
    35    12    13    2
    36    37    38   ar
    37    38    39   ar
    38    39    35   ar
    39     6     1    1
    40    13     8    1
    41    20    15   ar
    42    26    22   ar
    43    13     5    1
    44    34    28   ar
    45    19    21    1
    46     2    14    1
    47    26    27    1
