@<TRIPOS>MOLECULE
*****
 28 32 0 0 0
SMALL
GASTEIGER

@<TRIPOS>ATOM
      1 C         139.7675  138.6307  157.6267 C.ar    1  UNL1        0.1845
      2 N         138.7579  139.2725  156.7219 N.ar    1  UNL1       -0.1274
      3 N         137.8985  140.1772  157.5543 N.ar    1  UNL1       -0.1315
      4 C         138.3768  140.0944  158.9736 C.ar    1  UNL1        0.1636
      5 N         139.5320  139.1386  159.0184 N.ar    1  UNL1       -0.2944
      6 C         140.2202  138.8542  160.3205 C.3     1  UNL1        0.1302
      7 C         139.7531  139.5257  161.5778 C.3     1  UNL1        0.1186
      8 N         138.5980  140.4815  161.5331 N.am    1  UNL1       -0.2670
      9 C         138.1310  141.1530  162.7905 C.2     1  UNL1        0.2494
     10 O         136.9758  142.1088  162.7457 O.2     1  UNL1       -0.2699
     11 C         137.9098  140.7659  160.2309 C.3     1  UNL1        0.1599
     12 C         142.2534  134.6354  155.2312 C.3     1  UNL1        0.0594
     13 C         141.9694  135.8161  156.1116 C.ar    1  UNL1        0.0887
     14 N         140.6609  136.5416  156.2187 N.ar    1  UNL1       -0.2396
     15 C         140.8267  137.6526  157.2127 C.ar    1  UNL1        0.1237
     16 C         142.2378  137.6137  157.7201 C.ar    1  UNL1        0.0588
     17 S         142.9439  136.4787  157.0396 S.2     1  UNL1       -0.0701
     18 C         138.8191  140.8687  164.0926 C.ar    1  UNL1        0.0536
     19 C         140.0078  141.6846  164.5066 C.ar    1  UNL1        0.0045
     20 C         140.6960  141.4002  165.8088 C.ar    1  UNL1        0.0006
     21 C         140.1954  140.2999  166.6969 C.ar    1  UNL1        0.0060
     22 C         139.0068  139.4840  166.2830 C.ar    1  UNL1        0.0006
     23 C         138.3186  139.7684  164.9808 C.ar    1  UNL1        0.0045
     24 C         140.8836  140.0156  167.9990 C.ar    1  UNL1        0.0295
     25 C         142.2799  139.4925  168.1625 C.ar    1  UNL1        0.0070
     26 C         142.5556  139.3580  169.6308 C.ar    1  UNL1        0.0075
     27 C         141.3296  139.7980  170.3748 C.ar    1  UNL1        0.0354
     28 S         140.2963  140.2044  169.3663 S.2     1  UNL1       -0.0864
@<TRIPOS>BOND
     1    12    13    1
     2    13    14   ar
     3    14    15   ar
     4    15     1    1
     5     1     2   ar
     6     2     3   ar
     7     3     4   ar
     8     4     5   ar
     9     5     6    1
    10     6     7    1
    11     7     8    1
    12     8     9   am
    13     9    10    2
    14     9    18    1
    15    18    19   ar
    16    19    20   ar
    17    20    21   ar
    18    21    24    1
    19    24    25   ar
    20    25    26   ar
    21    26    27   ar
    22    27    28   ar
    23    21    22   ar
    24    22    23   ar
    25     8    11    1
    26    15    16   ar
    27    16    17   ar
    28    17    13   ar
    29     5     1   ar
    30    23    18   ar
    31    11     4    1
    32    28    24   ar
@<TRIPOS>MOLECULE
*****
 28 32 0 0 0
SMALL
GASTEIGER

@<TRIPOS>ATOM
      1 C         143.3049  140.2432  157.9712 C.ar    1  UNL1        0.1845
      2 N         144.1913  141.1104  157.1272 N.ar    1  UNL1       -0.1274
      3 N         144.6414  142.2690  157.9667 N.ar    1  UNL1       -0.1315
      4 C         144.0333  142.1179  159.3296 C.ar    1  UNL1        0.1636
      5 N         143.2073  140.8658  159.3323 N.ar    1  UNL1       -0.2944
      6 C         142.4730  140.4545  160.5739 C.3     1  UNL1        0.1302
      7 C         142.5647  141.2952  161.8127 C.3     1  UNL1        0.1186
      8 N         143.3907  142.5473  161.8100 N.am    1  UNL1       -0.2670
      9 C         143.4824  143.3880  163.0489 C.2     1  UNL1        0.2494
     10 O         144.3085  144.6401  163.0462 O.2     1  UNL1       -0.2699
     11 C         144.1250  142.9586  160.5684 C.3     1  UNL1        0.1599
     12 C         142.5057  135.2475  156.4597 C.3     1  UNL1        0.0594
     13 C         142.2666  136.6794  156.8365 C.ar    1  UNL1        0.0887
     14 N         143.3158  137.6710  157.2439 N.ar    1  UNL1       -0.2396
     15 C         142.6339  138.9758  157.5313 C.ar    1  UNL1        0.1237
     16 C         141.1632  138.7907  157.3015 C.ar    1  UNL1        0.0588
     17 S         140.9362  137.3715  156.8721 S.2     1  UNL1       -0.0701
     18 C         142.7481  142.9767  164.2905 C.ar    1  UNL1        0.0536
     19 C         141.3445  143.4516  164.5237 C.ar    1  UNL1        0.0045
     20 C         140.6102  143.0402  165.7654 C.ar    1  UNL1        0.0006
     21 C         141.2794  142.1540  166.7737 C.ar    1  UNL1        0.0060
     22 C         142.6830  141.6791  166.5404 C.ar    1  UNL1        0.0006
     23 C         143.4174  142.0904  165.2988 C.ar    1  UNL1        0.0045
     24 C         140.5451  141.7426  168.0152 C.ar    1  UNL1        0.0295
     25 C         139.8004  140.4558  168.2136 C.ar    1  UNL1        0.0070
     26 C         139.2216  140.4637  169.5974 C.ar    1  UNL1        0.0075
     27 C         139.6086  141.7555  170.2543 C.ar    1  UNL1        0.0354
     28 S         140.4266  142.5459  169.2765 S.2     1  UNL1       -0.0864
@<TRIPOS>BOND
     1    12    13    1
     2    13    14   ar
     3    14    15   ar
     4    15     1    1
     5     1     2   ar
     6     2     3   ar
     7     3     4   ar
     8     4     5   ar
     9     5     6    1
    10     6     7    1
    11     7     8    1
    12     8     9   am
    13     9    10    2
    14     9    18    1
    15    18    19   ar
    16    19    20   ar
    17    20    21   ar
    18    21    24    1
    19    24    25   ar
    20    25    26   ar
    21    26    27   ar
    22    27    28   ar
    23    21    22   ar
    24    22    23   ar
    25     8    11    1
    26    15    16   ar
    27    16    17   ar
    28    17    13   ar
    29     5     1   ar
    30    23    18   ar
    31    11     4    1
    32    28    24   ar
@<TRIPOS>MOLECULE
*****
 28 32 0 0 0
SMALL
GASTEIGER

@<TRIPOS>ATOM
      1 C         139.7908  140.2859  168.1407 C.ar    1  UNL1        0.1845
      2 N         138.5933  139.5945  168.7218 N.ar    1  UNL1       -0.1274
      3 N         137.9212  138.8281  167.6213 N.ar    1  UNL1       -0.1315
      4 C         138.7034  139.0460  166.3601 C.ar    1  UNL1        0.1636
      5 N         139.8589  139.9470  166.6811 N.ar    1  UNL1       -0.2944
      6 C         140.8238  140.3424  165.6029 C.3     1  UNL1        0.1302
      7 C         140.6332  139.8367  164.2036 C.3     1  UNL1        0.1186
      8 N         139.4777  138.9358  163.8826 N.am    1  UNL1       -0.2670
      9 C         139.2871  138.4301  162.4832 C.2     1  UNL1        0.2494
     10 O         138.1316  137.5292  162.1622 O.2     1  UNL1       -0.2699
     11 C         138.5128  138.5404  164.9608 C.3     1  UNL1        0.1599
     12 C         144.2594  142.4690  169.9145 C.3     1  UNL1        0.0594
     13 C         142.8057  142.1660  169.7034 C.ar    1  UNL1        0.0887
     14 N         142.2475  141.1188  168.7858 N.ar    1  UNL1       -0.2396
     15 C         140.7517  141.1625  168.8880 C.ar    1  UNL1        0.1237
     16 C         140.3852  142.2366  169.8688 C.ar    1  UNL1        0.0588
     17 S         141.6547  142.8568  170.3727 S.2     1  UNL1       -0.0701
     18 C         140.2519  138.8255  161.4050 C.ar    1  UNL1        0.0536
     19 C         141.5235  138.0525  161.2160 C.ar    1  UNL1        0.0045
     20 C         142.4884  138.4479  160.1377 C.ar    1  UNL1        0.0006
     21 C         142.1817  139.6163  159.2484 C.ar    1  UNL1        0.0060
     22 C         140.9102  140.3893  159.4374 C.ar    1  UNL1        0.0006
     23 C         139.9453  139.9939  160.5156 C.ar    1  UNL1        0.0045
     24 C         143.1466  140.0117  158.1702 C.ar    1  UNL1        0.0295
     25 C         144.2566  141.0117  158.3037 C.ar    1  UNL1        0.0070
     26 C         144.9669  141.0945  156.9852 C.ar    1  UNL1        0.0075
     27 C         144.2959  140.1457  156.0367 C.ar    1  UNL1        0.0354
     28 S         143.1709  139.4765  156.7691 S.2     1  UNL1       -0.0864
@<TRIPOS>BOND
     1    12    13    1
     2    13    14   ar
     3    14    15   ar
     4    15     1    1
     5     1     2   ar
     6     2     3   ar
     7     3     4   ar
     8     4     5   ar
     9     5     6    1
    10     6     7    1
    11     7     8    1
    12     8     9   am
    13     9    10    2
    14     9    18    1
    15    18    19   ar
    16    19    20   ar
    17    20    21   ar
    18    21    24    1
    19    24    25   ar
    20    25    26   ar
    21    26    27   ar
    22    27    28   ar
    23    21    22   ar
    24    22    23   ar
    25     8    11    1
    26    15    16   ar
    27    16    17   ar
    28    17    13   ar
    29     5     1   ar
    30    23    18   ar
    31    11     4    1
    32    28    24   ar
@<TRIPOS>MOLECULE
*****
 28 32 0 0 0
SMALL
GASTEIGER

@<TRIPOS>ATOM
      1 C         138.9580  142.1294  158.5427 C.ar    1  UNL1        0.1845
      2 N         138.1357  141.2420  157.6559 N.ar    1  UNL1       -0.1274
      3 N         137.8065  139.9962  158.4238 N.ar    1  UNL1       -0.1315
      4 C         138.4252  140.1137  159.7852 C.ar    1  UNL1        0.1636
      5 N         139.1369  141.4321  159.8587 N.ar    1  UNL1       -0.2944
      6 C         139.8559  141.8273  161.1143 C.3     1  UNL1        0.1302
      7 C         139.8632  140.9041  162.2966 C.3     1  UNL1        0.1186
      8 N         139.1515  139.5857  162.2231 N.am    1  UNL1       -0.2670
      9 C         139.1588  138.6626  163.4054 C.2     1  UNL1        0.2494
     10 O         138.4472  137.3442  163.3319 O.2     1  UNL1       -0.2699
     11 C         138.4325  139.1905  160.9674 C.3     1  UNL1        0.1599
     12 C         140.0458  146.5522  155.8715 C.3     1  UNL1        0.0594
     13 C         140.0053  145.5104  156.9498 C.ar    1  UNL1        0.0887
     14 N         139.2733  144.2027  156.8854 N.ar    1  UNL1       -0.2396
     15 C         139.5053  143.4774  158.1776 C.ar    1  UNL1        0.1237
     16 C         140.3806  144.3368  159.0409 C.ar    1  UNL1        0.0588
     17 S         140.6897  145.5933  158.2820 S.2     1  UNL1       -0.0701
     18 C         139.8778  139.0578  164.6611 C.ar    1  UNL1        0.0536
     19 C         139.1346  139.7506  165.7645 C.ar    1  UNL1        0.0045
     20 C         139.8537  140.1459  167.0202 C.ar    1  UNL1        0.0006
     21 C         141.3159  139.8482  167.1725 C.ar    1  UNL1        0.0060
     22 C         142.0591  139.1553  166.0691 C.ar    1  UNL1        0.0006
     23 C         141.3401  138.7601  164.8134 C.ar    1  UNL1        0.0045
     24 C         142.0349  140.2434  168.4282 C.ar    1  UNL1        0.0295
     25 C         142.8177  141.5059  168.6357 C.ar    1  UNL1        0.0070
     26 C         143.3640  141.4883  170.0326 C.ar    1  UNL1        0.0075
     27 C         142.9187  140.2149  170.6885 C.ar    1  UNL1        0.0354
     28 S         142.0973  139.4455  169.6969 S.2     1  UNL1       -0.0864
@<TRIPOS>BOND
     1    12    13    1
     2    13    14   ar
     3    14    15   ar
     4    15     1    1
     5     1     2   ar
     6     2     3   ar
     7     3     4   ar
     8     4     5   ar
     9     5     6    1
    10     6     7    1
    11     7     8    1
    12     8     9   am
    13     9    10    2
    14     9    18    1
    15    18    19   ar
    16    19    20   ar
    17    20    21   ar
    18    21    24    1
    19    24    25   ar
    20    25    26   ar
    21    26    27   ar
    22    27    28   ar
    23    21    22   ar
    24    22    23   ar
    25     8    11    1
    26    15    16   ar
    27    16    17   ar
    28    17    13   ar
    29     5     1   ar
    30    23    18   ar
    31    11     4    1
    32    28    24   ar
@<TRIPOS>MOLECULE
*****
 28 32 0 0 0
SMALL
GASTEIGER

@<TRIPOS>ATOM
      1 C         143.3179  139.8252  157.6055 C.ar    1  UNL1        0.1845
      2 N         142.4501  139.0233  156.6815 N.ar    1  UNL1       -0.1274
      3 N         141.4098  138.3285  157.5091 N.ar    1  UNL1       -0.1315
      4 C         141.6346  138.7009  158.9446 C.ar    1  UNL1        0.1636
      5 N         142.8139  139.6260  159.0042 N.ar    1  UNL1       -0.2944
      6 C         143.2765  140.1674  160.3244 C.3     1  UNL1        0.1302
      7 C         142.5598  139.7838  161.5849 C.3     1  UNL1        0.1186
      8 N         141.3805  138.8587  161.5254 N.am    1  UNL1       -0.2670
      9 C         140.6638  138.4751  162.7860 C.2     1  UNL1        0.2494
     10 O         139.4845  137.5500  162.7265 O.2     1  UNL1       -0.2699
     11 C         140.9179  138.3173  160.2052 C.3     1  UNL1        0.1599
     12 C         147.6817  141.5394  155.1767 C.3     1  UNL1        0.0594
     13 C         146.4906  141.4648  156.0853 C.ar    1  UNL1        0.0887
     14 N         145.5107  140.3319  156.1634 N.ar    1  UNL1       -0.2396
     15 C         144.4848  140.6769  157.2018 C.ar    1  UNL1        0.1237
     16 C         144.8306  142.0232  157.7656 C.ar    1  UNL1        0.0588
     17 S         146.0702  142.5102  157.0756 S.2     1  UNL1       -0.0701
     18 C         141.1263  139.0165  164.1062 C.ar    1  UNL1        0.0536
     19 C         140.5428  140.2911  164.6401 C.ar    1  UNL1        0.0045
     20 C         141.0054  140.8325  165.9603 C.ar    1  UNL1        0.0006
     21 C         142.0515  140.0994  166.7466 C.ar    1  UNL1        0.0060
     22 C         142.6350  138.8248  166.2127 C.ar    1  UNL1        0.0006
     23 C         142.1725  138.2834  164.8925 C.ar    1  UNL1        0.0045
     24 C         142.5141  140.6408  168.0667 C.ar    1  UNL1        0.0295
     25 C         143.1062  141.9983  168.3042 C.ar    1  UNL1        0.0070
     26 C         143.4238  142.1163  169.7654 C.ar    1  UNL1        0.0075
     27 C         143.0280  140.8316  170.4311 C.ar    1  UNL1        0.0354
     28 S         142.4658  139.9197  169.3812 S.2     1  UNL1       -0.0864
@<TRIPOS>BOND
     1    12    13    1
     2    13    14   ar
     3    14    15   ar
     4    15     1    1
     5     1     2   ar
     6     2     3   ar
     7     3     4   ar
     8     4     5   ar
     9     5     6    1
    10     6     7    1
    11     7     8    1
    12     8     9   am
    13     9    10    2
    14     9    18    1
    15    18    19   ar
    16    19    20   ar
    17    20    21   ar
    18    21    24    1
    19    24    25   ar
    20    25    26   ar
    21    26    27   ar
    22    27    28   ar
    23    21    22   ar
    24    22    23   ar
    25     8    11    1
    26    15    16   ar
    27    16    17   ar
    28    17    13   ar
    29     5     1   ar
    30    23    18   ar
    31    11     4    1
    32    28    24   ar
@<TRIPOS>MOLECULE
*****
 28 32 0 0 0
SMALL
GASTEIGER

@<TRIPOS>ATOM
      1 C         142.3524  142.7547  158.2831 C.ar    1  UNL1        0.1845
      2 N         143.6400  142.9338  157.5347 N.ar    1  UNL1       -0.1274
      3 N         144.7694  142.7412  158.5029 N.ar    1  UNL1       -0.1315
      4 C         144.1799  142.4430  159.8496 C.ar    1  UNL1        0.1636
      5 N         142.6861  142.4513  159.7137 N.ar    1  UNL1       -0.2944
      6 C         141.8227  142.1816  160.9103 C.3     1  UNL1        0.1302
      7 C         142.4531  141.9036  162.2426 C.3     1  UNL1        0.1186
      8 N         143.9469  141.8953  162.3785 N.am    1  UNL1       -0.2670
      9 C         144.5773  141.6173  163.7109 C.2     1  UNL1        0.2494
     10 O         146.0711  141.6090  163.8468 O.2     1  UNL1       -0.2699
     11 C         144.8103  142.1650  161.1819 C.3     1  UNL1        0.1599
     12 C         137.3989  141.6004  156.8650 C.3     1  UNL1        0.0594
     13 C         138.6963  142.3297  157.0509 C.ar    1  UNL1        0.0887
     14 N         139.9125  141.8010  157.7519 N.ar    1  UNL1       -0.2396
     15 C         140.9733  142.8603  157.7028 C.ar    1  UNL1        0.1237
     16 C         140.4128  144.0439  156.9713 C.ar    1  UNL1        0.0588
     17 S         139.0056  143.7160  156.5684 S.2     1  UNL1       -0.0701
     18 C         143.7139  141.3476  164.9075 C.ar    1  UNL1        0.0536
     19 C         143.2365  139.9537  165.1890 C.ar    1  UNL1        0.0045
     20 C         142.3731  139.6840  166.3857 C.ar    1  UNL1        0.0006
     21 C         141.9870  140.8082  167.3006 C.ar    1  UNL1        0.0060
     22 C         142.4644  142.2021  167.0190 C.ar    1  UNL1        0.0006
     23 C         143.3278  142.4718  165.8225 C.ar    1  UNL1        0.0045
     24 C         141.1236  140.5385  168.4971 C.ar    1  UNL1        0.0295
     25 C         139.6245  140.5779  168.5295 C.ar    1  UNL1        0.0070
     26 C         139.1821  140.2458  169.9238 C.ar    1  UNL1        0.0075
     27 C         140.4078  140.0011  170.7531 C.ar    1  UNL1        0.0354
     28 S         141.6077  140.1819  169.8714 S.2     1  UNL1       -0.0864
@<TRIPOS>BOND
     1    12    13    1
     2    13    14   ar
     3    14    15   ar
     4    15     1    1
     5     1     2   ar
     6     2     3   ar
     7     3     4   ar
     8     4     5   ar
     9     5     6    1
    10     6     7    1
    11     7     8    1
    12     8     9   am
    13     9    10    2
    14     9    18    1
    15    18    19   ar
    16    19    20   ar
    17    20    21   ar
    18    21    24    1
    19    24    25   ar
    20    25    26   ar
    21    26    27   ar
    22    27    28   ar
    23    21    22   ar
    24    22    23   ar
    25     8    11    1
    26    15    16   ar
    27    16    17   ar
    28    17    13   ar
    29     5     1   ar
    30    23    18   ar
    31    11     4    1
    32    28    24   ar
@<TRIPOS>MOLECULE
*****
 28 32 0 0 0
SMALL
GASTEIGER

@<TRIPOS>ATOM
      1 C         142.5100  139.7895  167.3651 C.ar    1  UNL1        0.1845
      2 N         143.3532  138.5921  167.6895 N.ar    1  UNL1       -0.1274
      3 N         143.9514  138.0862  166.4103 N.ar    1  UNL1       -0.1315
      4 C         143.4780  138.9710  165.2954 C.ar    1  UNL1        0.1636
      5 N         142.5872  140.0237  165.8855 N.ar    1  UNL1       -0.2944
      6 C         141.9613  141.0595  164.9993 C.3     1  UNL1        0.1302
      7 C         142.2263  141.0426  163.5230 C.3     1  UNL1        0.1186
      8 N         143.1171  139.9899  162.9329 N.am    1  UNL1       -0.2670
      9 C         143.3821  139.9730  161.4566 C.2     1  UNL1        0.2494
     10 O         144.2729  138.9203  160.8665 O.2     1  UNL1       -0.2699
     11 C         143.7430  138.9541  163.8191 C.3     1  UNL1        0.1599
     12 C         140.4171  143.8991  169.9364 C.3     1  UNL1        0.0594
     13 C         140.7651  142.4979  169.5297 C.ar    1  UNL1        0.0887
     14 N         141.6597  142.1067  168.3910 N.ar    1  UNL1       -0.2396
     15 C         141.7272  140.6089  168.3478 C.ar    1  UNL1        0.1237
     16 C         140.8743  140.0743  169.4599 C.ar    1  UNL1        0.0588
     17 S         140.2798  141.2417  170.1904 S.2     1  UNL1       -0.0701
     18 C         142.7562  141.0088  160.5704 C.ar    1  UNL1        0.0536
     19 C         143.4783  142.2940  160.2930 C.ar    1  UNL1        0.0045
     20 C         142.8524  143.3298  159.4068 C.ar    1  UNL1        0.0006
     21 C         141.5044  143.0805  158.7980 C.ar    1  UNL1        0.0060
     22 C         140.7823  141.7953  159.0753 C.ar    1  UNL1        0.0006
     23 C         141.4082  140.7595  159.9615 C.ar    1  UNL1        0.0045
     24 C         140.8785  144.1163  157.9118 C.ar    1  UNL1        0.0295
     25 C         140.0945  143.8493  156.6612 C.ar    1  UNL1        0.0070
     26 C         139.6582  145.1689  156.0971 C.ar    1  UNL1        0.0075
     27 C         140.1726  146.2515  156.9990 C.ar    1  UNL1        0.0354
     28 S         140.9268  145.6009  158.1205 S.2     1  UNL1       -0.0864
@<TRIPOS>BOND
     1    12    13    1
     2    13    14   ar
     3    14    15   ar
     4    15     1    1
     5     1     2   ar
     6     2     3   ar
     7     3     4   ar
     8     4     5   ar
     9     5     6    1
    10     6     7    1
    11     7     8    1
    12     8     9   am
    13     9    10    2
    14     9    18    1
    15    18    19   ar
    16    19    20   ar
    17    20    21   ar
    18    21    24    1
    19    24    25   ar
    20    25    26   ar
    21    26    27   ar
    22    27    28   ar
    23    21    22   ar
    24    22    23   ar
    25     8    11    1
    26    15    16   ar
    27    16    17   ar
    28    17    13   ar
    29     5     1   ar
    30    23    18   ar
    31    11     4    1
    32    28    24   ar
@<TRIPOS>MOLECULE
*****
 28 32 0 0 0
SMALL
GASTEIGER

@<TRIPOS>ATOM
      1 C         139.4927  140.3144  167.9146 C.ar    1  UNL1        0.1845
      2 N         138.5564  139.2230  168.3412 N.ar    1  UNL1       -0.1274
      3 N         137.8774  138.6892  167.1148 N.ar    1  UNL1       -0.1315
      4 C         138.3940  139.4507  165.9303 C.ar    1  UNL1        0.1636
      5 N         139.3924  140.4552  166.4246 N.ar    1  UNL1       -0.2944
      6 C         140.0811  141.3683  165.4540 C.3     1  UNL1        0.1302
      7 C         139.7715  141.2768  163.9892 C.3     1  UNL1        0.1186
      8 N         138.7731  140.2724  163.4949 N.am    1  UNL1       -0.2670
      9 C         138.4635  140.1810  162.0300 C.2     1  UNL1        0.2494
     10 O         137.4651  139.1765  161.5358 O.2     1  UNL1       -0.2699
     11 C         138.0844  139.3593  164.4655 C.3     1  UNL1        0.1599
     12 C         143.7288  142.6829  169.9946 C.3     1  UNL1        0.0594
     13 C         142.3218  142.2118  169.7753 C.ar    1  UNL1        0.0887
     14 N         141.8477  141.3464  168.6455 N.ar    1  UNL1       -0.2396
     15 C         140.3746  141.1231  168.8191 C.ar    1  UNL1        0.1237
     16 C         139.9382  141.8506  170.0562 C.ar    1  UNL1        0.0588
     17 S         141.1416  142.5235  170.6471 S.2     1  UNL1       -0.0701
     18 C         139.1522  141.0941  161.0595 C.ar    1  UNL1        0.0536
     19 C         140.4589  140.6876  160.4453 C.ar    1  UNL1        0.0045
     20 C         141.1476  141.6008  159.4747 C.ar    1  UNL1        0.0006
     21 C         140.5296  142.9202  159.1184 C.ar    1  UNL1        0.0060
     22 C         139.2229  143.3267  159.7327 C.ar    1  UNL1        0.0006
     23 C         138.5342  142.4136  160.7032 C.ar    1  UNL1        0.0045
     24 C         141.2183  143.8333  158.1479 C.ar    1  UNL1        0.0295
     25 C         141.4127  145.3114  158.3138 C.ar    1  UNL1        0.0070
     26 C         142.1481  145.8202  157.1095 C.ar    1  UNL1        0.0075
     27 C         142.4083  144.6566  156.1993 C.ar    1  UNL1        0.0354
     28 S         141.8336  143.4286  156.8411 S.2     1  UNL1       -0.0864
@<TRIPOS>BOND
     1    12    13    1
     2    13    14   ar
     3    14    15   ar
     4    15     1    1
     5     1     2   ar
     6     2     3   ar
     7     3     4   ar
     8     4     5   ar
     9     5     6    1
    10     6     7    1
    11     7     8    1
    12     8     9   am
    13     9    10    2
    14     9    18    1
    15    18    19   ar
    16    19    20   ar
    17    20    21   ar
    18    21    24    1
    19    24    25   ar
    20    25    26   ar
    21    26    27   ar
    22    27    28   ar
    23    21    22   ar
    24    22    23   ar
    25     8    11    1
    26    15    16   ar
    27    16    17   ar
    28    17    13   ar
    29     5     1   ar
    30    23    18   ar
    31    11     4    1
    32    28    24   ar
@<TRIPOS>MOLECULE
*****
 28 32 0 0 0
SMALL
GASTEIGER

@<TRIPOS>ATOM
      1 C         139.8848  139.6952  167.2542 C.ar    1  UNL1        0.1845
      2 N         138.5282  139.1265  167.5481 N.ar    1  UNL1       -0.1274
      3 N         137.8820  138.7708  166.2420 N.ar    1  UNL1       -0.1315
      4 C         138.8391  139.1196  165.1410 C.ar    1  UNL1        0.1636
      5 N         140.0769  139.6909  165.7666 N.ar    1  UNL1       -0.2944
      6 C         141.2191  140.1334  164.9008 C.3     1  UNL1        0.1302
      7 C         141.1235  140.0045  163.4094 C.3     1  UNL1        0.1186
      8 N         139.8856  139.4332  162.7839 N.am    1  UNL1       -0.2670
      9 C         139.7900  139.3044  161.2924 C.2     1  UNL1        0.2494
     10 O         138.5522  138.7331  160.6668 O.2     1  UNL1       -0.2699
     11 C         138.7434  138.9907  163.6496 C.3     1  UNL1        0.1599
     12 C         143.7194  142.4625  169.6033 C.3     1  UNL1        0.0594
     13 C         142.6380  141.4546  169.3495 C.ar    1  UNL1        0.0887
     14 N         141.8431  141.3136  168.0852 N.ar    1  UNL1       -0.2396
     15 C         140.8753  140.1826  168.2697 C.ar    1  UNL1        0.1237
     16 C         141.0720  139.6245  169.6481 C.ar    1  UNL1        0.0588
     17 S         142.1613  140.4106  170.3154 S.2     1  UNL1       -0.0701
     18 C         140.9322  139.7469  160.4266 C.ar    1  UNL1        0.0536
     19 C         140.9666  141.1464  159.8879 C.ar    1  UNL1        0.0045
     20 C         142.1089  141.5888  159.0221 C.ar    1  UNL1        0.0006
     21 C         143.2166  140.6318  158.6951 C.ar    1  UNL1        0.0060
     22 C         143.1822  139.2323  159.2338 C.ar    1  UNL1        0.0006
     23 C         142.0400  138.7898  160.0996 C.ar    1  UNL1        0.0045
     24 C         144.3588  141.0743  157.8293 C.ar    1  UNL1        0.0295
     25 C         145.2146  142.2862  158.0502 C.ar    1  UNL1        0.0070
     26 C         146.2304  142.3435  156.9481 C.ar    1  UNL1        0.0075
     27 C         146.0024  141.1670  156.0459 C.ar    1  UNL1        0.0354
     28 S         144.8457  140.3826  156.5905 S.2     1  UNL1       -0.0864
@<TRIPOS>BOND
     1    12    13    1
     2    13    14   ar
     3    14    15   ar
     4    15     1    1
     5     1     2   ar
     6     2     3   ar
     7     3     4   ar
     8     4     5   ar
     9     5     6    1
    10     6     7    1
    11     7     8    1
    12     8     9   am
    13     9    10    2
    14     9    18    1
    15    18    19   ar
    16    19    20   ar
    17    20    21   ar
    18    21    24    1
    19    24    25   ar
    20    25    26   ar
    21    26    27   ar
    22    27    28   ar
    23    21    22   ar
    24    22    23   ar
    25     8    11    1
    26    15    16   ar
    27    16    17   ar
    28    17    13   ar
    29     5     1   ar
    30    23    18   ar
    31    11     4    1
    32    28    24   ar
