@<TRIPOS>MOLECULE
*****
 37 41 0 0 0
SMALL
GASTEIGER

@<TRIPOS>ATOM
      1 C         142.8818  139.5997  164.3244 C.ar    1  UNL1        0.0017
      2 C         143.5994  138.6788  165.2661 C.ar    1  UNL1        0.0016
      3 C         143.2849  138.7117  166.7324 C.ar    1  UNL1        0.0192
      4 C         142.2529  139.6655  167.2569 C.ar    1  UNL1        0.0845
      5 N         141.9384  139.6984  168.7233 N.ar    1  UNL1       -0.2240
      6 C         140.9063  140.6522  169.2478 C.ar    1  UNL1        0.1988
      7 N         140.1887  141.5731  168.3059 N.ar    1  UNL1       -0.2240
      8 C         140.5032  141.5402  166.8397 C.ar    1  UNL1        0.0844
      9 C         141.5353  140.5864  166.3152 C.ar    1  UNL1        0.0354
     10 C         141.8497  140.5535  164.8489 C.ar    1  UNL1        0.0030
     11 C         143.8251  139.5012  159.9254 C.ar    1  UNL1        0.2348
     12 N         143.7675  138.2234  160.7089 N.ar    1  UNL1       -0.2096
     13 C         143.4530  138.2562  162.1752 C.ar    1  UNL1        0.1021
     14 C         143.1962  139.5669  162.8580 C.ar    1  UNL1        0.0201
     15 C         143.2538  140.8447  162.0745 C.ar    1  UNL1        0.0165
     16 C         143.5683  140.8119  160.6083 C.ar    1  UNL1        0.1215
     17 C         143.0531  139.1821  157.4654 C.3     1  UNL1        0.2543
     18 O         144.1395  139.4684  158.4591 O.3     1  UNL1       -0.4557
     19 C         143.6259  142.0897  159.8248 C.1     1  UNL1        0.1051
     20 N         143.6835  143.3675  159.0413 N.1     1  UNL1       -0.1907
     21 C         139.7856  142.4611  165.8979 C.ar    1  UNL1        0.0179
     22 C         139.4858  143.8716  166.3110 C.ar    1  UNL1        0.0015
     23 C         138.7681  144.7925  165.3692 C.ar    1  UNL1        0.0002
     24 C         138.3503  144.3029  164.0143 C.ar    1  UNL1        0.0045
     25 C         138.6501  142.8924  163.6012 C.ar    1  UNL1        0.0536
     26 C         139.3677  141.9715  164.5430 C.ar    1  UNL1        0.0060
     27 C         138.2323  142.4028  162.2463 C.2     1  UNL1        0.2491
     28 O         137.2035  141.3179  162.1252 O.2     1  UNL1       -0.2699
     29 N         138.8432  142.9982  161.0125 N.am    1  UNL1       -0.2726
     30 C         139.8719  144.0831  161.1335 C.3     1  UNL1        0.1152
     31 C         140.4828  144.6784  159.8997 C.3     1  UNL1        0.1149
     32 N         140.0650  144.1888  158.5448 N.am    1  UNL1       -0.2760
     33 C         140.6759  144.7842  157.3109 C.2     1  UNL1        0.2262
     34 C         141.7046  145.8691  157.4320 C.3     1  UNL1        0.0948
     35 O         140.2580  144.2946  155.9561 O.2     1  UNL1       -0.2749
     36 C         139.0362  143.1039  158.4237 C.3     1  UNL1        0.1149
     37 C         138.4253  142.5086  159.6576 C.3     1  UNL1        0.1152
@<TRIPOS>BOND
     1    17    18    1
     2    18    11    1
     3    11    12   ar
     4    12    13   ar
     5    13    14   ar
     6    14     1    1
     7     1     2   ar
     8     2     3   ar
     9     3     4   ar
    10     4     5   ar
    11     5     6   ar
    12     6     7   ar
    13     7     8   ar
    14     8    21    1
    15    21    22   ar
    16    22    23   ar
    17    23    24   ar
    18    24    25   ar
    19    25    27    1
    20    27    28    2
    21    27    29   am
    22    29    30    1
    23    30    31    1
    24    31    32    1
    25    32    33   am
    26    33    34    1
    27    33    35    2
    28    32    36    1
    29    36    37    1
    30    25    26   ar
    31     8     9   ar
    32     9    10   ar
    33    14    15   ar
    34    15    16   ar
    35    16    19    1
    36    19    20    3
    37    16    11   ar
    38    10     1   ar
    39     9     4   ar
    40    26    21   ar
    41    37    29    1
@<TRIPOS>MOLECULE
*****
 37 41 0 0 0
SMALL
GASTEIGER

@<TRIPOS>ATOM
      1 C         139.2983  139.5622  164.2218 C.ar    1  UNL1        0.0017
      2 C         138.4545  138.6936  165.1069 C.ar    1  UNL1        0.0016
      3 C         138.5619  138.8138  166.5982 C.ar    1  UNL1        0.0192
      4 C         139.5131  139.8026  167.2044 C.ar    1  UNL1        0.0845
      5 N         139.6205  139.9227  168.6958 N.ar    1  UNL1       -0.2240
      6 C         140.5717  140.9114  169.3020 C.ar    1  UNL1        0.1988
      7 N         141.4156  141.7801  168.4168 N.ar    1  UNL1       -0.2240
      8 C         141.3082  141.6599  166.9255 C.ar    1  UNL1        0.0844
      9 C         140.3569  140.6712  166.3193 C.ar    1  UNL1        0.0354
     10 C         140.2495  140.5510  164.8280 C.ar    1  UNL1        0.0030
     11 C         138.9762  139.2019  159.7478 C.ar    1  UNL1        0.2348
     12 N         139.1598  137.9729  160.5879 N.ar    1  UNL1       -0.2096
     13 C         139.2672  138.0930  162.0793 C.ar    1  UNL1        0.1021
     14 C         139.1909  139.4421  162.7304 C.ar    1  UNL1        0.0201
     15 C         139.0073  140.6712  161.8903 C.ar    1  UNL1        0.0165
     16 C         138.9000  140.5511  160.3990 C.ar    1  UNL1        0.1215
     17 C         139.8770  138.2737  157.4947 C.3     1  UNL1        0.2543
     18 O         138.8688  139.0819  158.2565 O.3     1  UNL1       -0.4557
     19 C         138.7164  141.7801  159.5589 C.1     1  UNL1        0.1051
     20 N         138.5328  143.0091  158.7188 N.1     1  UNL1       -0.1907
     21 C         142.1520  142.5286  166.0405 C.ar    1  UNL1        0.0179
     22 C         143.6058  142.7281  166.3513 C.ar    1  UNL1        0.0015
     23 C         144.4497  143.5968  165.4661 C.ar    1  UNL1        0.0002
     24 C         143.8397  144.2658  164.2703 C.ar    1  UNL1        0.0045
     25 C         142.3859  144.0663  163.9594 C.ar    1  UNL1        0.0536
     26 C         141.5420  143.1977  164.8445 C.ar    1  UNL1        0.0060
     27 C         141.7759  144.7355  162.7635 C.2     1  UNL1        0.2491
     28 O         140.7904  145.8509  162.9495 O.2     1  UNL1       -0.2699
     29 N         142.1514  144.2892  161.3816 N.am    1  UNL1       -0.2726
     30 C         143.1368  143.1737  161.1955 C.3     1  UNL1        0.1152
     31 C         143.5123  142.7274  159.8136 C.3     1  UNL1        0.1149
     32 N         142.9023  143.3965  158.6176 N.am    1  UNL1       -0.2760
     33 C         143.2778  142.9502  157.2357 C.2     1  UNL1        0.2262
     34 C         144.2633  141.8347  157.0496 C.3     1  UNL1        0.0948
     35 O         142.6679  143.6193  156.0398 O.2     1  UNL1       -0.2749
     36 C         141.9169  144.5120  158.8037 C.3     1  UNL1        0.1149
     37 C         141.5414  144.9583  160.1857 C.3     1  UNL1        0.1152
@<TRIPOS>BOND
     1    17    18    1
     2    18    11    1
     3    11    12   ar
     4    12    13   ar
     5    13    14   ar
     6    14     1    1
     7     1     2   ar
     8     2     3   ar
     9     3     4   ar
    10     4     5   ar
    11     5     6   ar
    12     6     7   ar
    13     7     8   ar
    14     8    21    1
    15    21    22   ar
    16    22    23   ar
    17    23    24   ar
    18    24    25   ar
    19    25    27    1
    20    27    28    2
    21    27    29   am
    22    29    30    1
    23    30    31    1
    24    31    32    1
    25    32    33   am
    26    33    34    1
    27    33    35    2
    28    32    36    1
    29    36    37    1
    30    25    26   ar
    31     8     9   ar
    32     9    10   ar
    33    14    15   ar
    34    15    16   ar
    35    16    19    1
    36    19    20    3
    37    16    11   ar
    38    10     1   ar
    39     9     4   ar
    40    26    21   ar
    41    37    29    1
@<TRIPOS>MOLECULE
*****
 37 41 0 0 0
SMALL
GASTEIGER

@<TRIPOS>ATOM
      1 C         140.1174  142.9861  165.4677 C.ar    1  UNL1        0.0017
      2 C         139.0388  144.0181  165.6145 C.ar    1  UNL1        0.0016
      3 C         138.7589  144.9750  164.4939 C.ar    1  UNL1        0.0192
      4 C         139.5577  144.9001  163.2265 C.ar    1  UNL1        0.0845
      5 N         139.2778  145.8571  162.1058 N.ar    1  UNL1       -0.2240
      6 C         140.0766  145.7821  160.8384 C.ar    1  UNL1        0.1988
      7 N         141.1553  144.7501  160.6917 N.ar    1  UNL1       -0.2240
      8 C         141.4352  143.7931  161.8123 C.ar    1  UNL1        0.0844
      9 C         140.6364  143.8681  163.0797 C.ar    1  UNL1        0.0354
     10 C         140.9162  142.9112  164.2004 C.ar    1  UNL1        0.0030
     11 C         140.9570  140.1151  168.8297 C.ar    1  UNL1        0.2348
     12 N         141.0852  139.6609  167.4059 N.ar    1  UNL1       -0.2096
     13 C         140.8053  140.6179  166.2853 C.ar    1  UNL1        0.1021
     14 C         140.3973  142.0291  166.5884 C.ar    1  UNL1        0.0201
     15 C         140.2691  142.4834  168.0122 C.ar    1  UNL1        0.0165
     16 C         140.5490  141.5264  169.1329 C.ar    1  UNL1        0.1215
     17 C         142.6345  138.6669  170.1856 C.3     1  UNL1        0.2543
     18 O         141.2369  139.1582  169.9504 O.3     1  UNL1       -0.4557
     19 C         140.4209  141.9807  170.5567 C.1     1  UNL1        0.1051
     20 N         140.2927  142.4350  171.9805 N.1     1  UNL1       -0.1907
     21 C         142.5138  142.7612  161.6656 C.ar    1  UNL1        0.0179
     22 C         143.9267  143.0941  162.0436 C.ar    1  UNL1        0.0015
     23 C         145.0054  142.0621  161.8968 C.ar    1  UNL1        0.0002
     24 C         144.6711  140.6972  161.3720 C.ar    1  UNL1        0.0045
     25 C         143.2582  140.3643  160.9940 C.ar    1  UNL1        0.0536
     26 C         142.1796  141.3963  161.1408 C.ar    1  UNL1        0.0060
     27 C         142.9240  138.9994  160.4693 C.2     1  UNL1        0.2491
     28 O         142.5678  137.8964  161.4213 O.2     1  UNL1       -0.2699
     29 N         142.9460  138.7375  158.9925 N.am    1  UNL1       -0.2726
     30 C         143.3022  139.8406  158.0404 C.3     1  UNL1        0.1152
     31 C         143.3243  139.5787  156.5636 C.3     1  UNL1        0.1149
     32 N         142.9900  138.2138  156.0389 N.am    1  UNL1       -0.2760
     33 C         143.0120  137.9519  154.5621 C.2     1  UNL1        0.2262
     34 C         143.3683  139.0549  153.6100 C.3     1  UNL1        0.0948
     35 O         142.6778  136.5870  154.0374 O.2     1  UNL1       -0.2749
     36 C         142.6338  137.1107  156.9909 C.3     1  UNL1        0.1149
     37 C         142.6118  137.3727  158.4678 C.3     1  UNL1        0.1152
@<TRIPOS>BOND
     1    17    18    1
     2    18    11    1
     3    11    12   ar
     4    12    13   ar
     5    13    14   ar
     6    14     1    1
     7     1     2   ar
     8     2     3   ar
     9     3     4   ar
    10     4     5   ar
    11     5     6   ar
    12     6     7   ar
    13     7     8   ar
    14     8    21    1
    15    21    22   ar
    16    22    23   ar
    17    23    24   ar
    18    24    25   ar
    19    25    27    1
    20    27    28    2
    21    27    29   am
    22    29    30    1
    23    30    31    1
    24    31    32    1
    25    32    33   am
    26    33    34    1
    27    33    35    2
    28    32    36    1
    29    36    37    1
    30    25    26   ar
    31     8     9   ar
    32     9    10   ar
    33    14    15   ar
    34    15    16   ar
    35    16    19    1
    36    19    20    3
    37    16    11   ar
    38    10     1   ar
    39     9     4   ar
    40    26    21   ar
    41    37    29    1
@<TRIPOS>MOLECULE
*****
 37 41 0 0 0
SMALL
GASTEIGER

@<TRIPOS>ATOM
      1 C         143.3953  142.5620  164.1320 C.ar    1  UNL1        0.0017
      2 C         144.4223  143.4193  164.8104 C.ar    1  UNL1        0.0016
      3 C         144.5163  143.4342  166.3074 C.ar    1  UNL1        0.0192
      4 C         143.5834  142.5917  167.1259 C.ar    1  UNL1        0.0845
      5 N         143.6774  142.6066  168.6229 N.ar    1  UNL1       -0.2240
      6 C         142.7445  141.7642  169.4414 C.ar    1  UNL1        0.1988
      7 N         141.7175  140.9069  168.7628 N.ar    1  UNL1       -0.2240
      8 C         141.6235  140.8920  167.2659 C.ar    1  UNL1        0.0844
      9 C         142.5564  141.7344  166.4474 C.ar    1  UNL1        0.0354
     10 C         142.4624  141.7196  164.9505 C.ar    1  UNL1        0.0030
     11 C         143.1131  142.5173  159.6410 C.ar    1  UNL1        0.2348
     12 N         143.0512  143.8192  160.3834 N.ar    1  UNL1       -0.2096
     13 C         143.1453  143.8341  161.8804 C.ar    1  UNL1        0.1021
     14 C         143.3012  142.5471  162.6350 C.ar    1  UNL1        0.0201
     15 C         143.3632  141.2452  161.8925 C.ar    1  UNL1        0.0165
     16 C         143.2691  141.2303  160.3956 C.ar    1  UNL1        0.1215
     17 C         141.6964  142.7276  157.4734 C.3     1  UNL1        0.2543
     18 O         143.0191  142.5023  158.1440 O.3     1  UNL1       -0.4557
     19 C         143.3311  139.9284  159.6532 C.1     1  UNL1        0.1051
     20 N         143.3930  138.6265  158.9107 N.1     1  UNL1       -0.1907
     21 C         140.5965  140.0347  166.5875 C.ar    1  UNL1        0.0179
     22 C         139.2769  139.7770  167.2524 C.ar    1  UNL1        0.0015
     23 C         138.2499  138.9196  166.5739 C.ar    1  UNL1        0.0002
     24 C         138.5426  138.3200  165.2305 C.ar    1  UNL1        0.0045
     25 C         139.8622  138.5777  164.5655 C.ar    1  UNL1        0.0536
     26 C         140.8891  139.4350  165.2440 C.ar    1  UNL1        0.0060
     27 C         140.1548  137.9781  163.2220 C.2     1  UNL1        0.2491
     28 O         140.8316  136.6428  163.1281 O.2     1  UNL1       -0.2699
     29 N         139.7707  138.7138  161.9726 N.am    1  UNL1       -0.2726
     30 C         139.0939  140.0491  162.0665 C.3     1  UNL1        0.1152
     31 C         138.7098  140.7848  160.8171 C.3     1  UNL1        0.1149
     32 N         139.0025  140.1852  159.4736 N.am    1  UNL1       -0.2760
     33 C         138.6183  140.9209  158.2242 C.2     1  UNL1        0.2262
     34 C         137.9415  142.2562  158.3181 C.3     1  UNL1        0.0948
     35 O         138.9110  140.3212  156.8808 O.2     1  UNL1       -0.2749
     36 C         139.6792  138.8498  159.3797 C.3     1  UNL1        0.1149
     37 C         140.0634  138.1141  160.6292 C.3     1  UNL1        0.1152
@<TRIPOS>BOND
     1    17    18    1
     2    18    11    1
     3    11    12   ar
     4    12    13   ar
     5    13    14   ar
     6    14     1    1
     7     1     2   ar
     8     2     3   ar
     9     3     4   ar
    10     4     5   ar
    11     5     6   ar
    12     6     7   ar
    13     7     8   ar
    14     8    21    1
    15    21    22   ar
    16    22    23   ar
    17    23    24   ar
    18    24    25   ar
    19    25    27    1
    20    27    28    2
    21    27    29   am
    22    29    30    1
    23    30    31    1
    24    31    32    1
    25    32    33   am
    26    33    34    1
    27    33    35    2
    28    32    36    1
    29    36    37    1
    30    25    26   ar
    31     8     9   ar
    32     9    10   ar
    33    14    15   ar
    34    15    16   ar
    35    16    19    1
    36    19    20    3
    37    16    11   ar
    38    10     1   ar
    39     9     4   ar
    40    26    21   ar
    41    37    29    1
@<TRIPOS>MOLECULE
*****
 37 41 0 0 0
SMALL
GASTEIGER

@<TRIPOS>ATOM
      1 C         140.1884  139.9319  165.8174 C.ar    1  UNL1        0.0017
      2 C         139.9556  138.4622  166.0064 C.ar    1  UNL1        0.0016
      3 C         139.2333  137.6758  164.9529 C.ar    1  UNL1        0.0192
      4 C         138.7439  138.3591  163.7105 C.ar    1  UNL1        0.0845
      5 N         138.0216  137.5725  162.6570 N.ar    1  UNL1       -0.2240
      6 C         137.5322  138.2558  161.4146 C.ar    1  UNL1        0.1988
      7 N         137.7650  139.7256  161.2257 N.ar    1  UNL1       -0.2240
      8 C         138.4872  140.5120  162.2791 C.ar    1  UNL1        0.0844
      9 C         138.9767  139.8288  163.5216 C.ar    1  UNL1        0.0354
     10 C         139.6989  140.6152  164.5750 C.ar    1  UNL1        0.0030
     11 C         142.3551  142.2915  168.9779 C.ar    1  UNL1        0.2348
     12 N         143.1234  141.6592  167.8554 N.ar    1  UNL1       -0.2096
     13 C         142.4011  140.8726  166.8019 C.ar    1  UNL1        0.1021
     14 C         140.9107  140.7185  166.8709 C.ar    1  UNL1        0.0201
     15 C         140.1424  141.3508  167.9934 C.ar    1  UNL1        0.0165
     16 C         140.8646  142.1373  169.0469 C.ar    1  UNL1        0.1215
     17 C         144.5371  142.8370  170.2784 C.3     1  UNL1        0.2543
     18 O         143.0773  143.0780  170.0313 O.3     1  UNL1       -0.4557
     19 C         140.0964  142.7696  170.1694 C.1     1  UNL1        0.1051
     20 N         139.3282  143.4019  171.2919 N.1     1  UNL1       -0.1907
     21 C         138.7200  141.9817  162.0902 C.ar    1  UNL1        0.0179
     22 C         137.8037  142.9758  162.7398 C.ar    1  UNL1        0.0015
     23 C         138.0365  144.4456  162.5508 C.ar    1  UNL1        0.0002
     24 C         139.1857  144.9212  161.7122 C.ar    1  UNL1        0.0045
     25 C         140.1020  143.9270  161.0626 C.ar    1  UNL1        0.0536
     26 C         139.8692  142.4573  161.2515 C.ar    1  UNL1        0.0060
     27 C         141.2512  144.4027  160.2239 C.2     1  UNL1        0.2491
     28 O         142.5436  144.7954  160.8762 O.2     1  UNL1       -0.2699
     29 N         141.1079  144.4856  158.7331 N.am    1  UNL1       -0.2726
     30 C         139.8155  144.0929  158.0809 C.3     1  UNL1        0.1152
     31 C         139.6722  144.1758  156.5901 C.3     1  UNL1        0.1149
     32 N         140.8214  144.6515  155.7514 N.am    1  UNL1       -0.2760
     33 C         140.6781  144.7344  154.2606 C.2     1  UNL1        0.2262
     34 C         139.3857  144.3417  153.6084 C.3     1  UNL1        0.0948
     35 O         141.8272  145.2100  153.4221 O.2     1  UNL1       -0.2749
     36 C         142.1138  145.0441  156.4037 C.3     1  UNL1        0.1149
     37 C         142.2571  144.9612  157.8946 C.3     1  UNL1        0.1152
@<TRIPOS>BOND
     1    17    18    1
     2    18    11    1
     3    11    12   ar
     4    12    13   ar
     5    13    14   ar
     6    14     1    1
     7     1     2   ar
     8     2     3   ar
     9     3     4   ar
    10     4     5   ar
    11     5     6   ar
    12     6     7   ar
    13     7     8   ar
    14     8    21    1
    15    21    22   ar
    16    22    23   ar
    17    23    24   ar
    18    24    25   ar
    19    25    27    1
    20    27    28    2
    21    27    29   am
    22    29    30    1
    23    30    31    1
    24    31    32    1
    25    32    33   am
    26    33    34    1
    27    33    35    2
    28    32    36    1
    29    36    37    1
    30    25    26   ar
    31     8     9   ar
    32     9    10   ar
    33    14    15   ar
    34    15    16   ar
    35    16    19    1
    36    19    20    3
    37    16    11   ar
    38    10     1   ar
    39     9     4   ar
    40    26    21   ar
    41    37    29    1
@<TRIPOS>MOLECULE
*****
 37 41 0 0 0
SMALL
GASTEIGER

@<TRIPOS>ATOM
      1 C         142.8993  139.5768  163.1883 C.ar    1  UNL1        0.0017
      2 C         143.8348  138.9025  164.1475 C.ar    1  UNL1        0.0016
      3 C         143.7221  139.1711  165.6189 C.ar    1  UNL1        0.0192
      4 C         142.6739  140.1140  166.1311 C.ar    1  UNL1        0.0845
      5 N         142.5613  140.3825  167.6026 N.ar    1  UNL1       -0.2240
      6 C         141.5131  141.3254  168.1148 C.ar    1  UNL1        0.1988
      7 N         140.5776  141.9997  167.1555 N.ar    1  UNL1       -0.2240
      8 C         140.6903  141.7311  165.6841 C.ar    1  UNL1        0.0844
      9 C         141.7385  140.7883  165.1719 C.ar    1  UNL1        0.0354
     10 C         141.8512  140.5197  163.7005 C.ar    1  UNL1        0.0030
     11 C         143.2373  138.7712  158.7738 C.ar    1  UNL1        0.2348
     12 N         142.6370  137.7383  159.6809 N.ar    1  UNL1       -0.2096
     13 C         142.5243  138.0069  161.1524 C.ar    1  UNL1        0.1021
     14 C         143.0120  139.3083  161.7168 C.ar    1  UNL1        0.0201
     15 C         143.6123  140.3412  160.8097 C.ar    1  UNL1        0.0165
     16 C         143.7250  140.0727  159.3383 C.ar    1  UNL1        0.1215
     17 C         142.2495  137.7780  156.5859 C.3     1  UNL1        0.2543
     18 O         143.3500  138.5027  157.3024 O.3     1  UNL1       -0.4557
     19 C         144.3253  141.1056  158.4312 C.1     1  UNL1        0.1051
     20 N         144.9257  142.1384  157.5242 N.1     1  UNL1       -0.1907
     21 C         139.7548  142.4054  164.7249 C.ar    1  UNL1        0.0179
     22 C         138.2855  142.1080  164.7759 C.ar    1  UNL1        0.0015
     23 C         137.3500  142.7824  163.8166 C.ar    1  UNL1        0.0002
     24 C         137.8839  143.7541  162.8063 C.ar    1  UNL1        0.0045
     25 C         139.3532  144.0515  162.7552 C.ar    1  UNL1        0.0536
     26 C         140.2887  143.3772  163.7145 C.ar    1  UNL1        0.0060
     27 C         139.8870  145.0232  161.7449 C.2     1  UNL1        0.2491
     28 O         139.9749  146.4824  162.0812 O.2     1  UNL1       -0.2699
     29 N         140.3330  144.5358  160.3982 N.am    1  UNL1       -0.2726
     30 C         140.2452  143.0766  160.0619 C.3     1  UNL1        0.1152
     31 C         140.6912  142.5892  158.7153 C.3     1  UNL1        0.1149
     32 N         141.2250  143.5609  157.7049 N.am    1  UNL1       -0.2760
     33 C         141.6710  143.0735  156.3583 C.2     1  UNL1        0.2262
     34 C         141.5832  141.6143  156.0219 C.3     1  UNL1        0.0948
     35 O         142.2048  144.0452  155.3480 O.2     1  UNL1       -0.2749
     36 C         141.3129  145.0201  158.0412 C.3     1  UNL1        0.1149
     37 C         140.8668  145.5075  159.3879 C.3     1  UNL1        0.1152
@<TRIPOS>BOND
     1    17    18    1
     2    18    11    1
     3    11    12   ar
     4    12    13   ar
     5    13    14   ar
     6    14     1    1
     7     1     2   ar
     8     2     3   ar
     9     3     4   ar
    10     4     5   ar
    11     5     6   ar
    12     6     7   ar
    13     7     8   ar
    14     8    21    1
    15    21    22   ar
    16    22    23   ar
    17    23    24   ar
    18    24    25   ar
    19    25    27    1
    20    27    28    2
    21    27    29   am
    22    29    30    1
    23    30    31    1
    24    31    32    1
    25    32    33   am
    26    33    34    1
    27    33    35    2
    28    32    36    1
    29    36    37    1
    30    25    26   ar
    31     8     9   ar
    32     9    10   ar
    33    14    15   ar
    34    15    16   ar
    35    16    19    1
    36    19    20    3
    37    16    11   ar
    38    10     1   ar
    39     9     4   ar
    40    26    21   ar
    41    37    29    1
@<TRIPOS>MOLECULE
*****
 37 41 0 0 0
SMALL
GASTEIGER

@<TRIPOS>ATOM
      1 C         142.1208  138.7469  156.6692 C.ar    1  UNL1        0.0017
      2 C         142.1053  139.7529  155.5568 C.ar    1  UNL1        0.0016
      3 C         142.1897  141.2176  155.8690 C.ar    1  UNL1        0.0192
      4 C         142.2896  141.6763  157.2936 C.ar    1  UNL1        0.0845
      5 N         142.3740  143.1410  157.6058 N.ar    1  UNL1       -0.2240
      6 C         142.4740  143.5997  159.0304 C.ar    1  UNL1        0.1988
      7 N         142.4895  142.5936  160.1429 N.ar    1  UNL1       -0.2240
      8 C         142.4051  141.1289  159.8307 C.ar    1  UNL1        0.0844
      9 C         142.3052  140.6702  158.4061 C.ar    1  UNL1        0.0354
     10 C         142.2207  139.2055  158.0939 C.ar    1  UNL1        0.0030
     11 C         141.8677  134.3526  155.7327 C.ar    1  UNL1        0.2348
     12 N         140.9243  135.3153  155.0745 N.ar    1  UNL1       -0.2096
     13 C         141.0087  136.7801  155.3867 C.ar    1  UNL1        0.1021
     14 C         142.0364  137.2821  156.3570 C.ar    1  UNL1        0.0201
     15 C         142.9798  136.3194  157.0153 C.ar    1  UNL1        0.0165
     16 C         142.8955  134.8547  156.7031 C.ar    1  UNL1        0.1215
     17 C         142.4401  132.3451  154.1862 C.3     1  UNL1        0.2543
     18 O         141.7833  132.8879  155.4206 O.3     1  UNL1       -0.4557
     19 C         143.8388  133.8921  157.3614 C.1     1  UNL1        0.1051
     20 N         144.7822  132.9294  158.0196 N.1     1  UNL1       -0.1907
     21 C         142.4206  140.1228  160.9432 C.ar    1  UNL1        0.0179
     22 C         143.6935  139.4101  161.2922 C.ar    1  UNL1        0.0015
     23 C         143.7090  138.4040  162.4047 C.ar    1  UNL1        0.0002
     24 C         142.4516  138.1107  163.1682 C.ar    1  UNL1        0.0045
     25 C         141.1787  138.8235  162.8192 C.ar    1  UNL1        0.0536
     26 C         141.1632  139.8295  161.7067 C.ar    1  UNL1        0.0060
     27 C         139.9213  138.5301  163.5827 C.2     1  UNL1        0.2491
     28 O         138.7933  137.7987  162.9175 O.2     1  UNL1       -0.2699
     29 N         139.7920  138.9682  165.0115 N.am    1  UNL1       -0.2726
     30 C         140.9200  139.6996  165.6767 C.3     1  UNL1        0.1152
     31 C         140.7906  140.1376  167.1055 C.3     1  UNL1        0.1149
     32 N         139.5332  139.8443  167.8690 N.am    1  UNL1       -0.2760
     33 C         139.4039  140.2823  169.2978 C.2     1  UNL1        0.2262
     34 C         140.5319  141.0138  169.9630 C.3     1  UNL1        0.0948
     35 O         138.1465  139.9890  170.0612 O.2     1  UNL1       -0.2749
     36 C         138.4052  139.1129  167.2038 C.3     1  UNL1        0.1149
     37 C         138.5346  138.6748  165.7749 C.3     1  UNL1        0.1152
@<TRIPOS>BOND
     1    17    18    1
     2    18    11    1
     3    11    12   ar
     4    12    13   ar
     5    13    14   ar
     6    14     1    1
     7     1     2   ar
     8     2     3   ar
     9     3     4   ar
    10     4     5   ar
    11     5     6   ar
    12     6     7   ar
    13     7     8   ar
    14     8    21    1
    15    21    22   ar
    16    22    23   ar
    17    23    24   ar
    18    24    25   ar
    19    25    27    1
    20    27    28    2
    21    27    29   am
    22    29    30    1
    23    30    31    1
    24    31    32    1
    25    32    33   am
    26    33    34    1
    27    33    35    2
    28    32    36    1
    29    36    37    1
    30    25    26   ar
    31     8     9   ar
    32     9    10   ar
    33    14    15   ar
    34    15    16   ar
    35    16    19    1
    36    19    20    3
    37    16    11   ar
    38    10     1   ar
    39     9     4   ar
    40    26    21   ar
    41    37    29    1
@<TRIPOS>MOLECULE
*****
 37 41 0 0 0
SMALL
GASTEIGER

@<TRIPOS>ATOM
      1 C         142.5769  136.6060  156.3002 C.ar    1  UNL1        0.0017
      2 C         142.5422  137.2317  154.9375 C.ar    1  UNL1        0.0016
      3 C         142.4534  138.7227  154.7989 C.ar    1  UNL1        0.0192
      4 C         142.3993  139.5878  156.0231 C.ar    1  UNL1        0.0845
      5 N         142.3105  141.0788  155.8845 N.ar    1  UNL1       -0.2240
      6 C         142.2565  141.9439  157.1087 C.ar    1  UNL1        0.1988
      7 N         142.2913  141.3180  158.4715 N.ar    1  UNL1       -0.2240
      8 C         142.3801  139.8271  158.6100 C.ar    1  UNL1        0.0844
      9 C         142.4341  138.9620  157.3858 C.ar    1  UNL1        0.0354
     10 C         142.5229  137.4711  157.5244 C.ar    1  UNL1        0.0030
     11 C         142.8433  132.1331  156.7160 C.ar    1  UNL1        0.2348
     12 N         143.7007  133.0182  157.5713 N.ar    1  UNL1       -0.2096
     13 C         143.6119  134.5092  157.4327 C.ar    1  UNL1        0.1021
     14 C         142.6657  135.1150  156.4388 C.ar    1  UNL1        0.0201
     15 C         141.8084  134.2299  155.5836 C.ar    1  UNL1        0.0165
     16 C         141.8971  132.7389  155.7221 C.ar    1  UNL1        0.1215
     17 C         144.1087  130.0222  157.5482 C.3     1  UNL1        0.2543
     18 O         142.9321  130.6422  156.8546 O.3     1  UNL1       -0.4557
     19 C         141.0397  131.8538  154.8669 C.1     1  UNL1        0.1051
     20 N         140.1824  130.9687  154.0116 N.1     1  UNL1       -0.1907
     21 C         142.4148  139.2013  159.9728 C.ar    1  UNL1        0.0179
     22 C         143.7171  138.7293  160.5483 C.ar    1  UNL1        0.0015
     23 C         143.7518  138.1035  161.9111 C.ar    1  UNL1        0.0002
     24 C         142.4843  137.9497  162.6984 C.ar    1  UNL1        0.0045
     25 C         141.1820  138.4218  162.1228 C.ar    1  UNL1        0.0536
     26 C         141.1473  139.0476  160.7601 C.ar    1  UNL1        0.0060
     27 C         139.9145  138.2681  162.9101 C.2     1  UNL1        0.2491
     28 O         138.7002  137.6669  162.2666 O.2     1  UNL1       -0.2699
     29 N         139.8613  138.7155  164.3408 N.am    1  UNL1       -0.2726
     30 C         141.0755  139.3167  164.9843 C.3     1  UNL1        0.1152
     31 C         141.0223  139.7642  166.4150 C.3     1  UNL1        0.1149
     32 N         139.7548  139.6105  167.2022 N.am    1  UNL1       -0.2760
     33 C         139.7016  140.0579  168.6329 C.2     1  UNL1        0.2262
     34 C         140.9158  140.6591  169.2764 C.3     1  UNL1        0.0948
     35 O         138.4341  139.9042  169.4201 O.2     1  UNL1       -0.2749
     36 C         138.5405  139.0092  166.5588 C.3     1  UNL1        0.1149
     37 C         138.5938  138.5618  165.1280 C.3     1  UNL1        0.1152
@<TRIPOS>BOND
     1    17    18    1
     2    18    11    1
     3    11    12   ar
     4    12    13   ar
     5    13    14   ar
     6    14     1    1
     7     1     2   ar
     8     2     3   ar
     9     3     4   ar
    10     4     5   ar
    11     5     6   ar
    12     6     7   ar
    13     7     8   ar
    14     8    21    1
    15    21    22   ar
    16    22    23   ar
    17    23    24   ar
    18    24    25   ar
    19    25    27    1
    20    27    28    2
    21    27    29   am
    22    29    30    1
    23    30    31    1
    24    31    32    1
    25    32    33   am
    26    33    34    1
    27    33    35    2
    28    32    36    1
    29    36    37    1
    30    25    26   ar
    31     8     9   ar
    32     9    10   ar
    33    14    15   ar
    34    15    16   ar
    35    16    19    1
    36    19    20    3
    37    16    11   ar
    38    10     1   ar
    39     9     4   ar
    40    26    21   ar
    41    37    29    1
@<TRIPOS>MOLECULE
*****
 37 41 0 0 0
SMALL
GASTEIGER

@<TRIPOS>ATOM
      1 C         140.2170  140.1427  165.5370 C.ar    1  UNL1        0.0017
      2 C         139.4410  138.8999  165.8583 C.ar    1  UNL1        0.0016
      3 C         138.7238  138.1607  164.7678 C.ar    1  UNL1        0.0192
      4 C         138.7826  138.6643  163.3561 C.ar    1  UNL1        0.0845
      5 N         138.0654  137.9251  162.2656 N.ar    1  UNL1       -0.2240
      6 C         138.1242  138.4287  160.8539 C.ar    1  UNL1        0.1988
      7 N         138.9002  139.6716  160.5327 N.ar    1  UNL1       -0.2240
      8 C         139.6174  140.4107  161.6232 C.ar    1  UNL1        0.0844
      9 C         139.5586  139.9071  163.0349 C.ar    1  UNL1        0.0354
     10 C         140.2758  140.6463  164.1253 C.ar    1  UNL1        0.0030
     11 C         142.3687  142.3604  168.8085 C.ar    1  UNL1        0.2348
     12 N         143.1388  141.8031  167.6482 N.ar    1  UNL1       -0.2096
     13 C         142.4216  141.0638  166.5577 C.ar    1  UNL1        0.1021
     14 C         140.9343  140.8819  166.6276 C.ar    1  UNL1        0.0201
     15 C         140.1642  141.4393  167.7879 C.ar    1  UNL1        0.0165
     16 C         140.8814  142.1785  168.8783 C.ar    1  UNL1        0.1215
     17 C         144.5404  142.8353  170.1532 C.3     1  UNL1        0.2543
     18 O         143.0859  143.0996  169.8990 O.3     1  UNL1       -0.4557
     19 C         140.1113  142.7358  170.0387 C.1     1  UNL1        0.1051
     20 N         139.3412  143.2932  171.1990 N.1     1  UNL1       -0.1907
     21 C         140.3934  141.6535  161.3019 C.ar    1  UNL1        0.0179
     22 C         139.7635  143.0014  161.4929 C.ar    1  UNL1        0.0015
     23 C         140.5396  144.2442  161.1716 C.ar    1  UNL1        0.0002
     24 C         141.9455  144.1392  160.6594 C.ar    1  UNL1        0.0045
     25 C         142.5754  142.7913  160.4685 C.ar    1  UNL1        0.0536
     26 C         141.7994  141.5485  160.7897 C.ar    1  UNL1        0.0060
     27 C         143.9814  142.6862  159.9563 C.2     1  UNL1        0.2491
     28 O         145.1323  142.6896  160.9183 O.2     1  UNL1       -0.2699
     29 N         144.2364  142.5778  158.4821 N.am    1  UNL1       -0.2726
     30 C         143.0855  142.5744  157.5201 C.3     1  UNL1        0.1152
     31 C         143.3406  142.4659  156.0460 C.3     1  UNL1        0.1149
     32 N         144.7465  142.3609  155.5338 N.am    1  UNL1       -0.2760
     33 C         145.0015  142.2524  154.0596 C.2     1  UNL1        0.2262
     34 C         143.8507  142.2490  153.0976 C.3     1  UNL1        0.0948
     35 O         146.4075  142.1474  153.5475 O.2     1  UNL1       -0.2749
     36 C         145.8974  142.3643  156.4958 C.3     1  UNL1        0.1149
     37 C         145.6423  142.4728  157.9700 C.3     1  UNL1        0.1152
@<TRIPOS>BOND
     1    17    18    1
     2    18    11    1
     3    11    12   ar
     4    12    13   ar
     5    13    14   ar
     6    14     1    1
     7     1     2   ar
     8     2     3   ar
     9     3     4   ar
    10     4     5   ar
    11     5     6   ar
    12     6     7   ar
    13     7     8   ar
    14     8    21    1
    15    21    22   ar
    16    22    23   ar
    17    23    24   ar
    18    24    25   ar
    19    25    27    1
    20    27    28    2
    21    27    29   am
    22    29    30    1
    23    30    31    1
    24    31    32    1
    25    32    33   am
    26    33    34    1
    27    33    35    2
    28    32    36    1
    29    36    37    1
    30    25    26   ar
    31     8     9   ar
    32     9    10   ar
    33    14    15   ar
    34    15    16   ar
    35    16    19    1
    36    19    20    3
    37    16    11   ar
    38    10     1   ar
    39     9     4   ar
    40    26    21   ar
    41    37    29    1
