@<TRIPOS>MOLECULE
*****
 30 31 0 0 0
SMALL
GASTEIGER

@<TRIPOS>ATOM
      1 N         142.0006  139.6496  164.8461 N.pl3   1  UNL1       -0.2820
      2 H         142.3730  138.7785  164.5783 H       1  UNL1        0.1551
      3 C         141.9702  140.4400  168.7351 C.ar    1  UNL1        0.0553
      4 C         142.4657  140.2349  167.3343 C.ar    1  UNL1        0.0489
      5 C         141.5050  139.8547  166.2469 C.ar    1  UNL1        0.1345
      6 N         140.0486  139.6796  166.5604 N.ar    1  UNL1       -0.2287
      7 C         139.5530  139.8847  167.9612 C.ar    1  UNL1        0.1080
      8 C         140.5138  140.2649  169.0485 C.ar    1  UNL1        0.1079
      9 C         143.6191  142.1523  169.7833 C.3     1  UNL1        0.1085
     10 N         142.9309  140.8201  169.8225 N.pl3   1  UNL1       -0.3310
     11 H         143.1099  140.1952  170.5619 H       1  UNL1        0.1469
     12 C         140.0181  140.4700  170.4494 C.2     1  UNL1        0.3441
     13 O         139.2907  139.3653  171.1568 O.2     1  UNL1       -0.2448
     14 O         140.2499  141.7798  171.1427 O.3     1  UNL1       -0.4413
     15 C         139.9936  143.0677  170.4179 C.3     1  UNL1        0.2560
     16 C         141.9289  140.7718  163.8533 C.ar    1  UNL1        0.1558
     17 C         142.5063  140.5963  162.4800 C.ar    1  UNL1        0.1342
     18 N         142.4346  141.7185  161.4873 N.ar    1  UNL1       -0.2263
     19 C         141.7854  143.0161  161.8678 C.ar    1  UNL1        0.2025
     20 C         141.2080  143.1916  163.2410 C.ar    1  UNL1        0.2543
     21 N         141.2798  142.0694  164.2338 N.ar    1  UNL1       -0.1931
     22 C         141.7136  144.1383  160.8751 C.1     1  UNL1        0.1246
     23 N         141.6419  145.2605  159.8823 N.1     1  UNL1       -0.1891
     24 O         140.5588  144.4892  163.6216 O.3     1  UNL1       -0.4610
     25 C         139.1037  144.5220  163.9839 C.3     1  UNL1        0.1836
     26 C         138.6886  144.8160  165.3950 C.3     1  UNL1        0.0488
     27 C         138.0636  144.2607  162.9351 C.3     1  UNL1        0.1163
     28 N         137.8725  142.8734  162.3976 N.3     1  UNL1       -0.2673
     29 C         137.3129  141.7975  163.2803 C.3     1  UNL1        0.0898
     30 C         138.2410  142.5620  160.9772 C.3     1  UNL1        0.0898
@<TRIPOS>BOND
     1     9    10    1
     2    10     3    1
     3     3     4   ar
     4     4     5   ar
     5     5     1    1
     6     1    16    1
     7    16    17   ar
     8    17    18   ar
     9    18    19   ar
    10    19    22    1
    11    22    23    3
    12    19    20   ar
    13    20    24    1
    14    24    25    1
    15    25    26    1
    16    25    27    1
    17    27    28    1
    18    28    29    1
    19    28    30    1
    20    20    21   ar
    21     5     6   ar
    22     6     7   ar
    23     7     8   ar
    24     8    12    1
    25    12    13    2
    26    12    14    1
    27    14    15    1
    28     8     3   ar
    29    21    16   ar
    30    10    11    1
    31     1     2    1
@<TRIPOS>MOLECULE
*****
 30 31 0 0 0
SMALL
GASTEIGER

@<TRIPOS>ATOM
      1 N         144.1581  143.5270  165.1678 N.pl3   1  UNL1       -0.2820
      2 H         145.0439  143.9348  165.3033 H       1  UNL1        0.1551
      3 C         142.6726  140.1643  166.6630 C.ar    1  UNL1        0.0553
      4 C         143.1941  141.1691  165.6790 C.ar    1  UNL1        0.0489
      5 C         143.6365  142.5222  166.1519 C.ar    1  UNL1        0.1345
      6 N         143.5572  142.8704  167.6087 N.ar    1  UNL1       -0.2287
      7 C         143.0357  141.8656  168.5927 C.ar    1  UNL1        0.1080
      8 C         142.5933  140.5125  168.1198 C.ar    1  UNL1        0.1079
      9 C         141.0157  138.6811  165.3195 C.3     1  UNL1        0.1085
     10 N         142.2303  138.8113  166.1901 N.pl3   1  UNL1       -0.3310
     11 H         142.7371  138.0086  166.4511 H       1  UNL1        0.1469
     12 C         142.0717  139.5076  169.1039 C.2     1  UNL1        0.3441
     13 O         142.9486  138.3792  169.5596 O.2     1  UNL1       -0.2448
     14 O         140.6733  139.6313  169.6321 O.3     1  UNL1       -0.4413
     15 C         139.5758  140.1299  168.7395 C.3     1  UNL1        0.2560
     16 C         143.3300  143.9106  163.9774 C.ar    1  UNL1        0.1558
     17 C         143.8579  143.6831  162.5918 C.ar    1  UNL1        0.1342
     18 N         143.0299  144.0666  161.4014 N.ar    1  UNL1       -0.2263
     19 C         141.6739  144.6777  161.5964 C.ar    1  UNL1        0.2025
     20 C         141.1461  144.9053  162.9819 C.ar    1  UNL1        0.2543
     21 N         141.9741  144.5217  164.1724 N.ar    1  UNL1       -0.1931
     22 C         140.8459  145.0613  160.4060 C.1     1  UNL1        0.1246
     23 N         140.0178  145.4449  159.2155 N.1     1  UNL1       -0.1891
     24 O         139.7901  145.5164  163.1770 O.3     1  UNL1       -0.4610
     25 C         138.7170  144.7487  163.8904 C.3     1  UNL1        0.1836
     26 C         138.6505  144.7689  165.3888 C.3     1  UNL1        0.0488
     27 C         137.7105  143.9607  163.1056 C.3     1  UNL1        0.1163
     28 N         138.0819  142.6221  162.5397 N.3     1  UNL1       -0.2673
     29 C         138.2366  141.4399  163.4499 C.3     1  UNL1        0.0898
     30 C         138.2986  142.4657  161.0637 C.3     1  UNL1        0.0898
@<TRIPOS>BOND
     1     9    10    1
     2    10     3    1
     3     3     4   ar
     4     4     5   ar
     5     5     1    1
     6     1    16    1
     7    16    17   ar
     8    17    18   ar
     9    18    19   ar
    10    19    22    1
    11    22    23    3
    12    19    20   ar
    13    20    24    1
    14    24    25    1
    15    25    26    1
    16    25    27    1
    17    27    28    1
    18    28    29    1
    19    28    30    1
    20    20    21   ar
    21     5     6   ar
    22     6     7   ar
    23     7     8   ar
    24     8    12    1
    25    12    13    2
    26    12    14    1
    27    14    15    1
    28     8     3   ar
    29    21    16   ar
    30    10    11    1
    31     1     2    1
@<TRIPOS>MOLECULE
*****
 30 31 0 0 0
SMALL
GASTEIGER

@<TRIPOS>ATOM
      1 N         138.6399  138.9332  165.8742 N.pl3   1  UNL1       -0.2820
      2 H         138.3393  137.9963  165.9082 H       1  UNL1        0.1551
      3 C         141.0648  140.9094  168.3164 C.ar    1  UNL1        0.0553
      4 C         140.5268  140.2492  167.0817 C.ar    1  UNL1        0.0489
      5 C         139.1780  139.5935  167.1090 C.ar    1  UNL1        0.1345
      6 N         138.3672  139.5980  168.3709 N.ar    1  UNL1       -0.2287
      7 C         138.9053  140.2583  169.6056 C.ar    1  UNL1        0.1080
      8 C         140.2541  140.9140  169.5783 C.ar    1  UNL1        0.1079
      9 C         142.9406  142.1437  167.0094 C.3     1  UNL1        0.1085
     10 N         142.4137  141.5651  168.2891 N.pl3   1  UNL1       -0.3310
     11 H         142.9531  141.6158  169.1111 H       1  UNL1        0.1469
     12 C         140.7921  141.5743  170.8131 C.2     1  UNL1        0.3441
     13 O         140.8088  140.8297  172.1151 O.2     1  UNL1       -0.2448
     14 O         141.3134  142.9792  170.7458 O.3     1  UNL1       -0.4413
     15 C         140.5276  144.0373  170.0297 C.3     1  UNL1        0.2560
     16 C         138.5600  139.7003  164.5877 C.ar    1  UNL1        0.1558
     17 C         138.9004  139.0276  163.2909 C.ar    1  UNL1        0.1342
     18 N         138.8204  139.7947  162.0044 N.ar    1  UNL1       -0.2263
     19 C         138.4000  141.2346  162.0147 C.ar    1  UNL1        0.2025
     20 C         138.0596  141.9073  163.3115 C.ar    1  UNL1        0.2543
     21 N         138.1396  141.1402  164.5980 N.ar    1  UNL1       -0.1931
     22 C         138.3200  142.0018  160.7282 C.1     1  UNL1        0.1246
     23 N         138.2401  142.7690  159.4417 N.1     1  UNL1       -0.1891
     24 O         137.6393  143.3472  163.3218 O.3     1  UNL1       -0.4610
     25 C         138.5713  144.3969  163.8503 C.3     1  UNL1        0.1836
     26 C         138.4870  144.8201  165.2869 C.3     1  UNL1        0.0488
     27 C         139.5878  145.0233  162.9424 C.3     1  UNL1        0.1163
     28 N         141.0178  144.5735  162.9937 N.3     1  UNL1       -0.2673
     29 C         141.4330  143.3129  162.2949 C.3     1  UNL1        0.0898
     30 C         142.0326  145.3842  163.7440 C.3     1  UNL1        0.0898
@<TRIPOS>BOND
     1     9    10    1
     2    10     3    1
     3     3     4   ar
     4     4     5   ar
     5     5     1    1
     6     1    16    1
     7    16    17   ar
     8    17    18   ar
     9    18    19   ar
    10    19    22    1
    11    22    23    3
    12    19    20   ar
    13    20    24    1
    14    24    25    1
    15    25    26    1
    16    25    27    1
    17    27    28    1
    18    28    29    1
    19    28    30    1
    20    20    21   ar
    21     5     6   ar
    22     6     7   ar
    23     7     8   ar
    24     8    12    1
    25    12    13    2
    26    12    14    1
    27    14    15    1
    28     8     3   ar
    29    21    16   ar
    30    10    11    1
    31     1     2    1
@<TRIPOS>MOLECULE
*****
 30 31 0 0 0
SMALL
GASTEIGER

@<TRIPOS>ATOM
      1 N         142.4899  140.0633  164.9366 N.pl3   1  UNL1       -0.2820
      2 H         143.0349  139.2724  164.7209 H       1  UNL1        0.1551
      3 C         139.8598  139.8455  167.9006 C.ar    1  UNL1        0.0553
      4 C         140.4769  139.7083  166.5404 C.ar    1  UNL1        0.0489
      5 C         141.8728  140.2006  166.2970 C.ar    1  UNL1        0.1345
      6 N         142.6515  140.8301  167.4138 N.ar    1  UNL1       -0.2287
      7 C         142.0344  140.9673  168.7740 C.ar    1  UNL1        0.1080
      8 C         140.6385  140.4750  169.0174 C.ar    1  UNL1        0.1079
      9 C         137.7138  138.6536  167.0496 C.3     1  UNL1        0.1085
     10 N         138.4639  139.3532  168.1440 N.pl3   1  UNL1       -0.3310
     11 H         138.0401  139.4893  169.0222 H       1  UNL1        0.1469
     12 C         140.0214  140.6122  170.3777 C.2     1  UNL1        0.3441
     13 O         139.3685  139.4286  171.0280 O.2     1  UNL1       -0.2448
     14 O         140.0572  141.9331  171.0877 O.3     1  UNL1       -0.4413
     15 C         140.0172  143.2091  170.3003 C.3     1  UNL1        0.2560
     16 C         142.2766  141.1313  163.9051 C.ar    1  UNL1        0.1558
     17 C         142.8240  140.9558  162.5196 C.ar    1  UNL1        0.1342
     18 N         142.6107  142.0237  161.4881 N.ar    1  UNL1       -0.2263
     19 C         141.8499  143.2671  161.8421 C.ar    1  UNL1        0.2025
     20 C         141.3025  143.4425  163.2275 C.ar    1  UNL1        0.2543
     21 N         141.5158  142.3746  164.2591 N.ar    1  UNL1       -0.1931
     22 C         141.6366  144.3350  160.8105 C.1     1  UNL1        0.1246
     23 N         141.4232  145.4029  159.7790 N.1     1  UNL1       -0.1891
     24 O         140.5417  144.6860  163.5815 O.3     1  UNL1       -0.4610
     25 C         139.0999  144.5938  163.9845 C.3     1  UNL1        0.1836
     26 C         138.7066  144.8031  165.4168 C.3     1  UNL1        0.0488
     27 C         138.0512  144.2924  162.9552 C.3     1  UNL1        0.1163
     28 N         137.9126  142.9016  162.4107 N.3     1  UNL1       -0.2673
     29 C         138.3198  142.6053  160.9978 C.3     1  UNL1        0.0898
     30 C         137.3668  141.8071  163.2792 C.3     1  UNL1        0.0898
@<TRIPOS>BOND
     1     9    10    1
     2    10     3    1
     3     3     4   ar
     4     4     5   ar
     5     5     1    1
     6     1    16    1
     7    16    17   ar
     8    17    18   ar
     9    18    19   ar
    10    19    22    1
    11    22    23    3
    12    19    20   ar
    13    20    24    1
    14    24    25    1
    15    25    26    1
    16    25    27    1
    17    27    28    1
    18    28    29    1
    19    28    30    1
    20    20    21   ar
    21     5     6   ar
    22     6     7   ar
    23     7     8   ar
    24     8    12    1
    25    12    13    2
    26    12    14    1
    27    14    15    1
    28     8     3   ar
    29    21    16   ar
    30    10    11    1
    31     1     2    1
@<TRIPOS>MOLECULE
*****
 30 31 0 0 0
SMALL
GASTEIGER

@<TRIPOS>ATOM
      1 N         138.6799  138.4896  166.0891 N.pl3   1  UNL1       -0.2820
      2 H         138.2698  137.6686  166.4455 H       1  UNL1        0.1551
      3 C         141.5979  140.8378  167.4010 C.ar    1  UNL1        0.0553
      4 C         140.7864  139.9534  166.5015 C.ar    1  UNL1        0.0489
      5 C         139.4914  139.3741  166.9887 C.ar    1  UNL1        0.1345
      6 N         139.0079  139.6793  168.3755 N.ar    1  UNL1       -0.2287
      7 C         139.8194  140.5637  169.2750 C.ar    1  UNL1        0.1080
      8 C         141.1144  141.1430  168.7877 C.ar    1  UNL1        0.1079
      9 C         142.8902  142.4524  165.8284 C.3     1  UNL1        0.1085
     10 N         142.8929  141.4171  166.9138 N.pl3   1  UNL1       -0.3310
     11 H         143.7447  141.1178  167.3064 H       1  UNL1        0.1469
     12 C         141.9259  142.0275  169.6873 C.2     1  UNL1        0.3441
     13 O         143.4206  141.9038  169.7112 O.2     1  UNL1       -0.2448
     14 O         141.2427  143.0356  170.5630 O.3     1  UNL1       -0.4413
     15 C         140.4478  144.1483  169.9466 C.3     1  UNL1        0.2560
     16 C         138.4932  138.8561  164.6466 C.ar    1  UNL1        0.1558
     17 C         138.8385  137.8690  163.5712 C.ar    1  UNL1        0.1342
     18 N         138.6518  138.2355  162.1287 N.ar    1  UNL1       -0.2263
     19 C         138.1198  139.5891  161.7616 C.ar    1  UNL1        0.2025
     20 C         137.7745  140.5762  162.8370 C.ar    1  UNL1        0.2543
     21 N         137.9612  140.2097  164.2795 N.ar    1  UNL1       -0.1931
     22 C         137.9331  139.9556  160.3191 C.1     1  UNL1        0.1246
     23 N         137.7464  140.3222  158.8766 N.1     1  UNL1       -0.1891
     24 O         137.2425  141.9298  162.4699 O.3     1  UNL1       -0.4610
     25 C         138.0415  143.1600  162.7834 C.3     1  UNL1        0.1836
     26 C         137.6812  144.0065  163.9681 C.3     1  UNL1        0.0488
     27 C         139.2007  143.5436  161.9122 C.3     1  UNL1        0.1163
     28 N         140.0457  144.7308  162.2679 N.3     1  UNL1       -0.2673
     29 C         141.2670  144.5536  163.1206 C.3     1  UNL1        0.0898
     30 C         139.6693  146.0952  161.7711 C.3     1  UNL1        0.0898
@<TRIPOS>BOND
     1     9    10    1
     2    10     3    1
     3     3     4   ar
     4     4     5   ar
     5     5     1    1
     6     1    16    1
     7    16    17   ar
     8    17    18   ar
     9    18    19   ar
    10    19    22    1
    11    22    23    3
    12    19    20   ar
    13    20    24    1
    14    24    25    1
    15    25    26    1
    16    25    27    1
    17    27    28    1
    18    28    29    1
    19    28    30    1
    20    20    21   ar
    21     5     6   ar
    22     6     7   ar
    23     7     8   ar
    24     8    12    1
    25    12    13    2
    26    12    14    1
    27    14    15    1
    28     8     3   ar
    29    21    16   ar
    30    10    11    1
    31     1     2    1
@<TRIPOS>MOLECULE
*****
 30 31 0 0 0
SMALL
GASTEIGER

@<TRIPOS>ATOM
      1 N         138.8242  137.8721  163.9976 N.pl3   1  UNL1       -0.2820
      2 H         138.8557  136.8923  163.9062 H       1  UNL1        0.1551
      3 C         140.2944  139.8318  167.1198 C.ar    1  UNL1        0.0553
      4 C         140.1908  139.2014  165.7627 C.ar    1  UNL1        0.0489
      5 C         138.9278  138.5025  165.3547 C.ar    1  UNL1        0.1345
      6 N         137.7684  138.4341  166.3039 N.ar    1  UNL1       -0.2287
      7 C         137.8720  139.0645  167.6610 C.ar    1  UNL1        0.1080
      8 C         139.1350  139.7633  168.0690 C.ar    1  UNL1        0.1079
      9 C         142.6569  139.7618  168.1985 C.3     1  UNL1        0.1085
     10 N         141.5574  140.5306  167.5277 N.pl3   1  UNL1       -0.3310
     11 H         141.6647  141.4939  167.3552 H       1  UNL1        0.1469
     12 C         139.2385  140.3938  169.4262 C.2     1  UNL1        0.3441
     13 O         138.7008  139.6770  170.6291 O.2     1  UNL1       -0.2448
     14 O         139.8798  141.7410  169.5803 O.3     1  UNL1       -0.4413
     15 C         140.7106  142.0419  170.7924 C.3     1  UNL1        0.2560
     16 C         138.6728  138.7344  162.7796 C.ar    1  UNL1        0.1558
     17 C         138.9892  138.1783  161.4228 C.ar    1  UNL1        0.1342
     18 N         138.8377  139.0407  160.2049 N.ar    1  UNL1       -0.2263
     19 C         138.3699  140.4592  160.3437 C.ar    1  UNL1        0.2025
     20 C         138.0536  141.0152  161.7004 C.ar    1  UNL1        0.2543
     21 N         138.2050  140.1528  162.9184 N.ar    1  UNL1       -0.1931
     22 C         138.2184  141.3215  159.1258 C.1     1  UNL1        0.1246
     23 N         138.0670  142.1839  157.9078 N.1     1  UNL1       -0.1891
     24 O         137.5857  142.4337  161.8393 O.3     1  UNL1       -0.4610
     25 C         138.3856  143.4114  162.6480 C.3     1  UNL1        0.1836
     26 C         137.7685  144.0809  163.8399 C.3     1  UNL1        0.0488
     27 C         139.8027  143.7198  162.2647 C.3     1  UNL1        0.1163
     28 N         140.3506  145.1014  162.4667 N.3     1  UNL1       -0.2673
     29 C         141.4872  145.3255  163.4196 C.3     1  UNL1        0.0898
     30 C         139.7620  146.2589  161.7159 C.3     1  UNL1        0.0898
@<TRIPOS>BOND
     1     9    10    1
     2    10     3    1
     3     3     4   ar
     4     4     5   ar
     5     5     1    1
     6     1    16    1
     7    16    17   ar
     8    17    18   ar
     9    18    19   ar
    10    19    22    1
    11    22    23    3
    12    19    20   ar
    13    20    24    1
    14    24    25    1
    15    25    26    1
    16    25    27    1
    17    27    28    1
    18    28    29    1
    19    28    30    1
    20    20    21   ar
    21     5     6   ar
    22     6     7   ar
    23     7     8   ar
    24     8    12    1
    25    12    13    2
    26    12    14    1
    27    14    15    1
    28     8     3   ar
    29    21    16   ar
    30    10    11    1
    31     1     2    1
@<TRIPOS>MOLECULE
*****
 30 31 0 0 0
SMALL
GASTEIGER

@<TRIPOS>ATOM
      1 N         143.4065  138.5061  167.2831 N.pl3   1  UNL1       -0.2820
      2 H         143.9491  137.8363  167.7587 H       1  UNL1        0.1551
      3 C         142.3397  137.9019  163.5086 C.ar    1  UNL1        0.0553
      4 C         142.3324  137.8582  165.0079 C.ar    1  UNL1        0.0489
      5 C         143.4139  138.5498  165.7837 C.ar    1  UNL1        0.1345
      6 N         144.5028  139.2852  165.0602 N.ar    1  UNL1       -0.2287
      7 C         144.5101  139.3290  163.5609 C.ar    1  UNL1        0.1080
      8 C         143.4286  138.6373  162.7851 C.ar    1  UNL1        0.1079
      9 C         139.8525  137.7318  162.7772 C.3     1  UNL1        0.1085
     10 N         141.2582  137.2102  162.7328 N.pl3   1  UNL1       -0.3310
     11 H         141.4709  136.4139  162.1945 H       1  UNL1        0.1469
     12 C         143.4360  138.6810  161.2857 C.2     1  UNL1        0.3441
     13 O         143.2050  137.4258  160.4976 O.2     1  UNL1       -0.2448
     14 O         143.6743  139.9800  160.5745 O.3     1  UNL1       -0.4413
     15 C         143.6733  140.0253  159.0752 C.3     1  UNL1        0.2560
     16 C         142.5724  139.4829  168.0578 C.ar    1  UNL1        0.1558
     17 C         142.4296  139.3343  169.5436 C.ar    1  UNL1        0.1342
     18 N         141.5955  140.3111  170.3183 N.ar    1  UNL1       -0.2263
     19 C         140.9043  141.4365  169.6072 C.ar    1  UNL1        0.2025
     20 C         141.0471  141.5851  168.1215 C.ar    1  UNL1        0.2543
     21 N         141.8812  140.6083  167.3468 N.ar    1  UNL1       -0.1931
     22 C         140.0702  142.4133  170.3819 C.1     1  UNL1        0.1246
     23 N         139.2361  143.3901  171.1566 N.1     1  UNL1       -0.1891
     24 O         140.3559  142.7106  167.4104 O.3     1  UNL1       -0.4610
     25 C         140.2489  142.6992  165.9143 C.3     1  UNL1        0.1836
     26 C         141.3139  143.3486  165.0813 C.3     1  UNL1        0.0488
     27 C         139.0769  142.0383  165.2511 C.3     1  UNL1        0.1163
     28 N         138.1460  142.8454  164.3957 N.3     1  UNL1       -0.2673
     29 C         137.8327  144.2659  164.7617 C.3     1  UNL1        0.0898
     30 C         137.5283  142.2320  163.1740 C.3     1  UNL1        0.0898
@<TRIPOS>BOND
     1     9    10    1
     2    10     3    1
     3     3     4   ar
     4     4     5   ar
     5     5     1    1
     6     1    16    1
     7    16    17   ar
     8    17    18   ar
     9    18    19   ar
    10    19    22    1
    11    22    23    3
    12    19    20   ar
    13    20    24    1
    14    24    25    1
    15    25    26    1
    16    25    27    1
    17    27    28    1
    18    28    29    1
    19    28    30    1
    20    20    21   ar
    21     5     6   ar
    22     6     7   ar
    23     7     8   ar
    24     8    12    1
    25    12    13    2
    26    12    14    1
    27    14    15    1
    28     8     3   ar
    29    21    16   ar
    30    10    11    1
    31     1     2    1
@<TRIPOS>MOLECULE
*****
 30 31 0 0 0
SMALL
GASTEIGER

@<TRIPOS>ATOM
      1 N         143.7995  138.5301  166.3803 N.pl3   1  UNL1       -0.2820
      2 H         144.6000  138.0145  166.6304 H       1  UNL1        0.1551
      3 C         141.4262  141.1955  168.1163 C.ar    1  UNL1        0.0553
      4 C         142.2079  140.4665  167.0639 C.ar    1  UNL1        0.0489
      5 C         143.0178  139.2591  167.4328 C.ar    1  UNL1        0.1345
      6 N         143.0460  138.7805  168.8541 N.ar    1  UNL1       -0.2287
      7 C         142.2643  139.5094  169.9065 C.ar    1  UNL1        0.1080
      8 C         141.4544  140.7169  169.5376 C.ar    1  UNL1        0.1079
      9 C         140.1930  142.6159  166.3243 C.3     1  UNL1        0.1085
     10 N         140.6164  142.4030  167.7474 N.pl3   1  UNL1       -0.3310
     11 H         140.3627  143.0557  168.4394 H       1  UNL1        0.1469
     12 C         140.6727  141.4458  170.5901 C.2     1  UNL1        0.3441
     13 O         141.3879  142.1220  171.7220 O.2     1  UNL1       -0.2448
     14 O         139.1757  141.4986  170.5106 O.3     1  UNL1       -0.4413
     15 C         138.4020  140.2754  170.1166 C.3     1  UNL1        0.2560
     16 C         143.3615  138.5868  164.9468 C.ar    1  UNL1        0.1558
     17 C         144.1685  139.3597  163.9460 C.ar    1  UNL1        0.1342
     18 N         143.7305  139.4164  162.5125 N.ar    1  UNL1       -0.2263
     19 C         142.4854  138.7002  162.0798 C.ar    1  UNL1        0.2025
     20 C         141.6785  137.9275  163.0806 C.ar    1  UNL1        0.2543
     21 N         142.1165  137.8708  164.5141 N.ar    1  UNL1       -0.1931
     22 C         142.0474  138.7570  160.6463 C.1     1  UNL1        0.1246
     23 N         141.6094  138.8137  159.2128 N.1     1  UNL1       -0.1891
     24 O         140.4335  137.2113  162.6479 O.3     1  UNL1       -0.4610
     25 C         139.0911  137.6945  163.1110 C.3     1  UNL1        0.1836
     26 C         138.7832  137.7619  164.5775 C.3     1  UNL1        0.0488
     27 C         138.0565  138.1101  162.1076 C.3     1  UNL1        0.1163
     28 N         138.0032  139.5310  161.6299 N.3     1  UNL1       -0.2673
     29 C         137.7444  140.6409  162.6051 C.3     1  UNL1        0.0898
     30 C         138.2088  139.8421  160.1769 C.3     1  UNL1        0.0898
@<TRIPOS>BOND
     1     9    10    1
     2    10     3    1
     3     3     4   ar
     4     4     5   ar
     5     5     1    1
     6     1    16    1
     7    16    17   ar
     8    17    18   ar
     9    18    19   ar
    10    19    22    1
    11    22    23    3
    12    19    20   ar
    13    20    24    1
    14    24    25    1
    15    25    26    1
    16    25    27    1
    17    27    28    1
    18    28    29    1
    19    28    30    1
    20    20    21   ar
    21     5     6   ar
    22     6     7   ar
    23     7     8   ar
    24     8    12    1
    25    12    13    2
    26    12    14    1
    27    14    15    1
    28     8     3   ar
    29    21    16   ar
    30    10    11    1
    31     1     2    1
@<TRIPOS>MOLECULE
*****
 30 31 0 0 0
SMALL
GASTEIGER

@<TRIPOS>ATOM
      1 N         138.4467  139.1704  165.7516 N.pl3   1  UNL1       -0.2820
      2 H         137.7424  138.5093  165.9418 H       1  UNL1        0.1551
      3 C         140.3013  140.2047  169.1043 C.ar    1  UNL1        0.0553
      4 C         139.2087  139.9642  168.1052 C.ar    1  UNL1        0.0489
      5 C         139.5394  139.4109  166.7507 C.ar    1  UNL1        0.1345
      6 N         140.9627  139.0980  166.3955 N.ar    1  UNL1       -0.2287
      7 C         142.0553  139.3385  167.3946 C.ar    1  UNL1        0.1080
      8 C         141.7246  139.8918  168.7490 C.ar    1  UNL1        0.1079
      9 C         139.9334  142.2420  170.6740 C.3     1  UNL1        0.1085
     10 N         139.9706  140.7581  170.4587 N.pl3   1  UNL1       -0.3310
     11 H         139.7779  140.1472  171.2064 H       1  UNL1        0.1469
     12 C         142.8173  140.1323  169.7482 C.2     1  UNL1        0.3441
     13 O         143.2656  139.0216  170.6512 O.2     1  UNL1       -0.2448
     14 O         143.4616  141.4835  169.8444 O.3     1  UNL1       -0.4413
     15 C         143.2799  142.4814  168.7393 C.3     1  UNL1        0.2560
     16 C         138.4271  139.9373  164.4626 C.ar    1  UNL1        0.1558
     17 C         138.5536  139.2113  163.1560 C.ar    1  UNL1        0.1342
     18 N         138.5339  139.9782  161.8670 N.ar    1  UNL1       -0.2263
     19 C         138.3878  141.4710  161.8845 C.ar    1  UNL1        0.2025
     20 C         138.2613  142.1969  163.1911 C.ar    1  UNL1        0.2543
     21 N         138.2809  141.4300  164.4801 N.ar    1  UNL1       -0.1931
     22 C         138.3681  142.2379  160.5955 C.1     1  UNL1        0.1246
     23 N         138.3485  143.0047  159.3065 N.1     1  UNL1       -0.1891
     24 O         138.1151  143.6897  163.2086 O.3     1  UNL1       -0.4610
     25 C         139.0153  144.5213  164.0735 C.3     1  UNL1        0.1836
     26 C         138.5615  144.9451  165.4389 C.3     1  UNL1        0.0488
     27 C         140.3692  144.9290  163.5730 C.3     1  UNL1        0.1163
     28 N         140.6376  144.9867  162.0984 N.3     1  UNL1       -0.2673
     29 C         139.9625  146.0259  161.2533 C.3     1  UNL1        0.0898
     30 C         141.5813  144.0052  161.4688 C.3     1  UNL1        0.0898
@<TRIPOS>BOND
     1     9    10    1
     2    10     3    1
     3     3     4   ar
     4     4     5   ar
     5     5     1    1
     6     1    16    1
     7    16    17   ar
     8    17    18   ar
     9    18    19   ar
    10    19    22    1
    11    22    23    3
    12    19    20   ar
    13    20    24    1
    14    24    25    1
    15    25    26    1
    16    25    27    1
    17    27    28    1
    18    28    29    1
    19    28    30    1
    20    20    21   ar
    21     5     6   ar
    22     6     7   ar
    23     7     8   ar
    24     8    12    1
    25    12    13    2
    26    12    14    1
    27    14    15    1
    28     8     3   ar
    29    21    16   ar
    30    10    11    1
    31     1     2    1
