@<TRIPOS>MOLECULE
*****
 34 37 0 0 0
SMALL
GASTEIGER

@<TRIPOS>ATOM
      1 N         143.0962  140.3551  160.9086 N.3     1  UNL1       -0.2673
      2 C         141.7976  140.4646  160.1660 C.3     1  UNL1        0.1035
      3 C         141.0941  141.7864  160.0762 C.3     1  UNL1        0.1470
      4 C         140.3906  143.1082  159.9864 C.3     1  UNL1        0.1036
      5 N         140.9858  144.3204  160.6393 N.3     1  UNL1       -0.2653
      6 C         142.2846  144.2108  161.3819 C.3     1  UNL1        0.1036
      7 C         142.9880  142.8891  161.4717 C.3     1  UNL1        0.1470
      8 C         143.6914  141.5673  161.5614 C.3     1  UNL1        0.1035
      9 O         141.6893  142.9986  160.7291 O.3     1  UNL1       -0.3530
     10 C         143.7997  139.0333  160.9984 C.3     1  UNL1        0.0913
     11 C         143.8779  138.3130  162.3118 C.3     1  UNL1        0.1087
     12 N         142.7047  138.3279  163.2464 N.3     1  UNL1       -0.1780
     13 H         141.8975  138.6299  162.7009 H       1  UNL1        0.1488
     14 S         142.7385  139.1820  164.4789 S.O2    1  UNL1        0.0603
     15 O         144.1494  138.7463  164.7422 O.2     1  UNL1       -0.1530
     16 O         141.3275  139.6177  164.2157 O.2     1  UNL1       -0.1530
     17 C         142.8399  141.7444  168.1768 C.ar    1  UNL1        0.0685
     18 C         143.1303  142.3508  166.8359 C.ar    1  UNL1        0.0116
     19 C         143.0965  141.4966  165.6033 C.ar    1  UNL1        0.0206
     20 C         142.7723  140.0361  165.7115 C.ar    1  UNL1        0.1220
     21 C         142.4818  139.4297  167.0524 C.ar    1  UNL1        0.0206
     22 C         142.5156  140.2838  168.2850 C.ar    1  UNL1        0.0116
     23 N         142.9074  143.4527  170.6420 N.1     1  UNL1       -0.1908
     24 C         142.8737  142.5985  169.4093 C.1     1  UNL1        0.1004
     25 C         140.2824  145.6422  160.5495 C.3     1  UNL1        0.1202
     26 C         139.5627  146.1915  161.7455 C.3     1  UNL1        0.2226
     27 O         138.4350  145.4186  162.3626 O.3     1  UNL1       -0.4740
     28 C         138.7226  144.3625  163.3882 C.ar    1  UNL1        0.1388
     29 C         138.0894  143.0080  163.2679 C.ar    1  UNL1        0.0392
     30 C         138.3770  141.9519  164.2936 C.ar    1  UNL1        0.0327
     31 C         139.2978  142.2502  165.4394 C.ar    1  UNL1        0.1403
     32 F         139.5853  141.1941  166.4650 F       1  UNL1       -0.2042
     33 C         139.9310  143.6047  165.5597 C.ar    1  UNL1        0.0327
     34 C         139.6434  144.6608  164.5341 C.ar    1  UNL1        0.0392
@<TRIPOS>BOND
     1    23    24    3
     2    24    17    1
     3    17    18   ar
     4    18    19   ar
     5    19    20   ar
     6    20    14    1
     7    14    15    2
     8    14    16    2
     9    14    12    1
    10    12    11    1
    11    11    10    1
    12    10     1    1
    13     1     2    1
    14     2     3    1
    15     3     4    1
    16     4     5    1
    17     5    25    1
    18    25    26    1
    19    26    27    1
    20    27    28    1
    21    28    29   ar
    22    29    30   ar
    23    30    31   ar
    24    31    32    1
    25    31    33   ar
    26    33    34   ar
    27     5     6    1
    28     6     7    1
    29     7     8    1
    30     7     9    1
    31    20    21   ar
    32    21    22   ar
    33    22    17   ar
    34     8     1    1
    35     9     3    1
    36    34    28   ar
    37    12    13    1
@<TRIPOS>MOLECULE
*****
 34 37 0 0 0
SMALL
GASTEIGER

@<TRIPOS>ATOM
      1 N         142.3284  139.9062  162.1458 N.3     1  UNL1       -0.2673
      2 C         142.9567  141.0788  162.8388 C.3     1  UNL1        0.1035
      3 C         142.5510  142.4745  162.4683 C.3     1  UNL1        0.1470
      4 C         142.1453  143.8703  162.0977 C.3     1  UNL1        0.1036
      5 N         141.1113  144.0935  161.0342 N.3     1  UNL1       -0.2653
      6 C         140.4830  142.9208  160.3412 C.3     1  UNL1        0.1036
      7 C         140.8887  141.5251  160.7117 C.3     1  UNL1        0.1470
      8 C         141.2945  140.1294  161.0822 C.3     1  UNL1        0.1035
      9 O         141.5170  142.6977  161.4047 O.3     1  UNL1       -0.3530
     10 C         142.7342  138.5104  162.5163 C.3     1  UNL1        0.0913
     11 C         141.8429  137.6769  163.3885 C.3     1  UNL1        0.1087
     12 N         142.1037  137.5916  164.8633 N.3     1  UNL1       -0.1780
     13 H         141.5687  136.7960  165.2114 H       1  UNL1        0.1488
     14 S         141.7764  138.7553  165.7513 S.O2    1  UNL1        0.0603
     15 O         140.3165  138.5621  165.4665 O.2     1  UNL1       -0.1530
     16 O         143.2364  138.9485  166.0362 O.2     1  UNL1       -0.1530
     17 C         140.7946  142.2465  168.4155 C.ar    1  UNL1        0.0685
     18 C         140.0432  140.9566  168.5621 C.ar    1  UNL1        0.0116
     19 C         140.3705  139.7928  167.6741 C.ar    1  UNL1        0.0206
     20 C         141.4491  139.9190  166.6394 C.ar    1  UNL1        0.1220
     21 C         142.2005  141.2090  166.4927 C.ar    1  UNL1        0.0206
     22 C         141.8732  142.3727  167.3807 C.ar    1  UNL1        0.0116
     23 N         140.1400  144.5739  170.1916 N.1     1  UNL1       -0.1908
     24 C         140.4673  143.4102  169.3035 C.1     1  UNL1        0.1004
     25 C         140.7055  145.4892  160.6637 C.3     1  UNL1        0.1202
     26 C         139.8101  146.2766  161.5738 C.3     1  UNL1        0.2226
     27 O         138.4886  145.7095  162.0004 O.3     1  UNL1       -0.4740
     28 C         138.4424  144.5257  162.9204 C.ar    1  UNL1        0.1388
     29 C         139.1224  144.5868  164.2560 C.ar    1  UNL1        0.0392
     30 C         139.0761  143.4029  165.1760 C.ar    1  UNL1        0.0327
     31 C         138.3498  142.1580  164.7604 C.ar    1  UNL1        0.1403
     32 F         138.3035  140.9742  165.6804 F       1  UNL1       -0.2042
     33 C         137.6698  142.0969  163.4248 C.ar    1  UNL1        0.0327
     34 C         137.7161  143.2807  162.5048 C.ar    1  UNL1        0.0392
@<TRIPOS>BOND
     1    23    24    3
     2    24    17    1
     3    17    18   ar
     4    18    19   ar
     5    19    20   ar
     6    20    14    1
     7    14    15    2
     8    14    16    2
     9    14    12    1
    10    12    11    1
    11    11    10    1
    12    10     1    1
    13     1     2    1
    14     2     3    1
    15     3     4    1
    16     4     5    1
    17     5    25    1
    18    25    26    1
    19    26    27    1
    20    27    28    1
    21    28    29   ar
    22    29    30   ar
    23    30    31   ar
    24    31    32    1
    25    31    33   ar
    26    33    34   ar
    27     5     6    1
    28     6     7    1
    29     7     8    1
    30     7     9    1
    31    20    21   ar
    32    21    22   ar
    33    22    17   ar
    34     8     1    1
    35     9     3    1
    36    34    28   ar
    37    12    13    1
@<TRIPOS>MOLECULE
*****
 34 37 0 0 0
SMALL
GASTEIGER

@<TRIPOS>ATOM
      1 N         139.0756  138.9243  162.3386 N.3     1  UNL1       -0.2673
      2 C         140.4727  139.3485  161.9951 C.3     1  UNL1        0.1035
      3 C         140.7014  140.5843  161.1764 C.3     1  UNL1        0.1470
      4 C         140.9301  141.8202  160.3576 C.3     1  UNL1        0.1036
      5 N         139.7616  142.6318  159.8823 N.3     1  UNL1       -0.2653
      6 C         138.3644  142.2076  160.2258 C.3     1  UNL1        0.1036
      7 C         138.1357  140.9717  161.0445 C.3     1  UNL1        0.1470
      8 C         137.9071  139.7359  161.8633 C.3     1  UNL1        0.1035
      9 O         139.5329  141.3959  160.7011 O.3     1  UNL1       -0.3530
     10 C         138.8469  137.6884  163.1574 C.3     1  UNL1        0.0913
     11 C         139.0367  137.7283  164.6447 C.3     1  UNL1        0.1087
     12 N         138.3828  138.8078  165.4556 N.3     1  UNL1       -0.1780
     13 H         137.9421  139.4469  164.7940 H       1  UNL1        0.1488
     14 S         139.2048  139.6481  166.3873 S.O2    1  UNL1        0.0603
     15 O         139.8070  140.3611  165.2130 O.2     1  UNL1       -0.1530
     16 O         138.6027  138.9351  167.5616 O.2     1  UNL1       -0.1530
     17 C         141.6709  142.1690  169.1826 C.ar    1  UNL1        0.0685
     18 C         142.1359  141.9351  167.7758 C.ar    1  UNL1        0.0116
     19 C         141.3139  141.0948  166.8440 C.ar    1  UNL1        0.0206
     20 C         140.0268  140.4884  167.3190 C.ar    1  UNL1        0.1220
     21 C         139.5618  140.7222  168.7259 C.ar    1  UNL1        0.0206
     22 C         140.3838  141.5625  169.6576 C.ar    1  UNL1        0.0116
     23 N         143.3150  143.8496  171.0461 N.1     1  UNL1       -0.1908
     24 C         142.4929  143.0092  170.1143 C.1     1  UNL1        0.1004
     25 C         139.9902  143.8677  159.0636 C.3     1  UNL1        0.1202
     26 C         140.4017  145.1454  159.7331 C.3     1  UNL1        0.2226
     27 O         139.5164  145.7664  160.7726 O.3     1  UNL1       -0.4740
     28 C         139.5445  145.2567  162.1830 C.ar    1  UNL1        0.1388
     29 C         138.2781  144.7891  162.8368 C.ar    1  UNL1        0.0392
     30 C         138.3061  144.2794  164.2474 C.ar    1  UNL1        0.0327
     31 C         139.6006  144.2374  165.0040 C.ar    1  UNL1        0.1403
     32 F         139.6286  143.7278  166.4145 F       1  UNL1       -0.2042
     33 C         140.8670  144.7051  164.3502 C.ar    1  UNL1        0.0327
     34 C         140.8390  145.2147  162.9397 C.ar    1  UNL1        0.0392
@<TRIPOS>BOND
     1    23    24    3
     2    24    17    1
     3    17    18   ar
     4    18    19   ar
     5    19    20   ar
     6    20    14    1
     7    14    15    2
     8    14    16    2
     9    14    12    1
    10    12    11    1
    11    11    10    1
    12    10     1    1
    13     1     2    1
    14     2     3    1
    15     3     4    1
    16     4     5    1
    17     5    25    1
    18    25    26    1
    19    26    27    1
    20    27    28    1
    21    28    29   ar
    22    29    30   ar
    23    30    31   ar
    24    31    32    1
    25    31    33   ar
    26    33    34   ar
    27     5     6    1
    28     6     7    1
    29     7     8    1
    30     7     9    1
    31    20    21   ar
    32    21    22   ar
    33    22    17   ar
    34     8     1    1
    35     9     3    1
    36    34    28   ar
    37    12    13    1
@<TRIPOS>MOLECULE
*****
 34 37 0 0 0
SMALL
GASTEIGER

@<TRIPOS>ATOM
      1 N         141.6361  144.1611  162.1604 N.3     1  UNL1       -0.2673
      2 C         141.5327  142.7611  161.6323 C.3     1  UNL1        0.1035
      3 C         142.0330  141.6105  162.4545 C.3     1  UNL1        0.1470
      4 C         142.5332  140.4599  163.2766 C.3     1  UNL1        0.1036
      5 N         143.1368  140.7095  164.6269 N.3     1  UNL1       -0.2653
      6 C         143.2402  142.1097  165.1551 C.3     1  UNL1        0.1036
      7 C         142.7400  143.2602  164.3329 C.3     1  UNL1        0.1470
      8 C         142.2398  144.4107  163.5108 C.3     1  UNL1        0.1035
      9 O         142.6366  141.8601  163.8048 O.3     1  UNL1       -0.3530
     10 C         141.1359  145.3118  161.3383 C.3     1  UNL1        0.0913
     11 C         139.9768  146.1316  161.8225 C.3     1  UNL1        0.1087
     12 N         138.6429  145.4840  162.0493 N.3     1  UNL1       -0.1780
     13 H         138.0618  146.1685  162.5333 H       1  UNL1        0.1488
     14 S         138.5522  144.2079  162.8325 S.O2    1  UNL1        0.0603
     15 O         138.9279  144.9480  164.0819 O.2     1  UNL1       -0.1530
     16 O         138.1765  143.4679  161.5830 O.2     1  UNL1       -0.1530
     17 C         138.2801  140.3797  165.1819 C.ar    1  UNL1        0.0685
     18 C         137.5368  140.5190  163.8866 C.ar    1  UNL1        0.0116
     19 C         137.6275  141.7952  163.1033 C.ar    1  UNL1        0.0206
     20 C         138.4615  142.9319  163.6156 C.ar    1  UNL1        0.1220
     21 C         139.2048  142.7924  164.9111 C.ar    1  UNL1        0.0206
     22 C         139.1141  141.5163  165.6942 C.ar    1  UNL1        0.0116
     23 N         138.0987  137.8274  166.7483 N.1     1  UNL1       -0.1908
     24 C         138.1893  139.1036  165.9651 C.1     1  UNL1        0.1004
     25 C         143.6371  139.5589  165.4491 C.3     1  UNL1        0.1202
     26 C         142.7593  138.9532  166.5040 C.3     1  UNL1        0.2226
     27 O         142.9724  139.3009  167.9474 O.3     1  UNL1       -0.4740
     28 C         142.1072  140.3344  168.6056 C.ar    1  UNL1        0.1388
     29 C         142.6167  141.7334  168.7876 C.ar    1  UNL1        0.0392
     30 C         141.7515  142.7670  169.4458 C.ar    1  UNL1        0.0327
     31 C         140.3768  142.4016  169.9218 C.ar    1  UNL1        0.1403
     32 F         139.5116  143.4352  170.5799 F       1  UNL1       -0.2042
     33 C         139.8673  141.0026  169.7397 C.ar    1  UNL1        0.0327
     34 C         140.7324  139.9690  169.0816 C.ar    1  UNL1        0.0392
@<TRIPOS>BOND
     1    23    24    3
     2    24    17    1
     3    17    18   ar
     4    18    19   ar
     5    19    20   ar
     6    20    14    1
     7    14    15    2
     8    14    16    2
     9    14    12    1
    10    12    11    1
    11    11    10    1
    12    10     1    1
    13     1     2    1
    14     2     3    1
    15     3     4    1
    16     4     5    1
    17     5    25    1
    18    25    26    1
    19    26    27    1
    20    27    28    1
    21    28    29   ar
    22    29    30   ar
    23    30    31   ar
    24    31    32    1
    25    31    33   ar
    26    33    34   ar
    27     5     6    1
    28     6     7    1
    29     7     8    1
    30     7     9    1
    31    20    21   ar
    32    21    22   ar
    33    22    17   ar
    34     8     1    1
    35     9     3    1
    36    34    28   ar
    37    12    13    1
@<TRIPOS>MOLECULE
*****
 34 37 0 0 0
SMALL
GASTEIGER

@<TRIPOS>ATOM
      1 N         138.2403  140.3252  161.6078 N.3     1  UNL1       -0.2673
      2 C         139.2375  140.9209  160.6588 C.3     1  UNL1        0.1035
      3 C         139.8988  142.2264  160.9878 C.3     1  UNL1        0.1470
      4 C         140.5602  143.5320  161.3168 C.3     1  UNL1        0.1036
      5 N         140.2243  144.2418  162.5948 N.3     1  UNL1       -0.2653
      6 C         139.2270  143.6461  163.5438 C.3     1  UNL1        0.1036
      7 C         138.5657  142.3406  163.2148 C.3     1  UNL1        0.1470
      8 C         137.9044  141.0351  162.8858 C.3     1  UNL1        0.1035
      9 O         139.5629  142.9362  162.2658 O.3     1  UNL1       -0.3530
     10 C         137.5789  139.0197  161.2788 C.3     1  UNL1        0.0913
     11 C         138.0171  137.7621  161.9690 C.3     1  UNL1        0.1087
     12 N         139.4743  137.5170  162.2273 N.3     1  UNL1       -0.1780
     13 H         139.6103  136.5062  162.2113 H       1  UNL1        0.1488
     14 S         140.1067  138.0190  163.4914 S.O2    1  UNL1        0.0603
     15 O         138.9306  137.5205  164.2777 O.2     1  UNL1       -0.1530
     16 O         141.2828  138.5175  162.7052 O.2     1  UNL1       -0.1530
     17 C         142.0038  139.5250  167.2839 C.ar    1  UNL1        0.0685
     18 C         142.7731  138.6188  166.3690 C.ar    1  UNL1        0.0116
     19 C         142.1407  138.1168  165.1048 C.ar    1  UNL1        0.0206
     20 C         140.7391  138.5210  164.7556 C.ar    1  UNL1        0.1220
     21 C         139.9698  139.4272  165.6705 C.ar    1  UNL1        0.0206
     22 C         140.6021  139.9291  166.9346 C.ar    1  UNL1        0.0116
     23 N         143.2685  140.5290  169.8123 N.1     1  UNL1       -0.1908
     24 C         142.6362  140.0269  168.5480 C.1     1  UNL1        0.1004
     25 C         140.8856  145.5473  162.9238 C.3     1  UNL1        0.1202
     26 C         142.1482  145.5654  163.7335 C.3     1  UNL1        0.2226
     27 O         143.4296  145.0647  163.1360 O.3     1  UNL1       -0.4740
     28 C         143.9215  143.6860  163.4636 C.ar    1  UNL1        0.1388
     29 C         143.5034  143.0250  164.7435 C.ar    1  UNL1        0.0392
     30 C         143.9953  141.6463  165.0711 C.ar    1  UNL1        0.0327
     31 C         144.9052  140.9287  164.1188 C.ar    1  UNL1        0.1403
     32 F         145.3971  139.5500  164.4464 F       1  UNL1       -0.2042
     33 C         145.3234  141.5897  162.8389 C.ar    1  UNL1        0.0327
     34 C         144.8315  142.9683  162.5113 C.ar    1  UNL1        0.0392
@<TRIPOS>BOND
     1    23    24    3
     2    24    17    1
     3    17    18   ar
     4    18    19   ar
     5    19    20   ar
     6    20    14    1
     7    14    15    2
     8    14    16    2
     9    14    12    1
    10    12    11    1
    11    11    10    1
    12    10     1    1
    13     1     2    1
    14     2     3    1
    15     3     4    1
    16     4     5    1
    17     5    25    1
    18    25    26    1
    19    26    27    1
    20    27    28    1
    21    28    29   ar
    22    29    30   ar
    23    30    31   ar
    24    31    32    1
    25    31    33   ar
    26    33    34   ar
    27     5     6    1
    28     6     7    1
    29     7     8    1
    30     7     9    1
    31    20    21   ar
    32    21    22   ar
    33    22    17   ar
    34     8     1    1
    35     9     3    1
    36    34    28   ar
    37    12    13    1
@<TRIPOS>MOLECULE
*****
 34 37 0 0 0
SMALL
GASTEIGER

@<TRIPOS>ATOM
      1 N         140.6383  139.7386  159.1783 N.3     1  UNL1       -0.2673
      2 C         139.8312  139.1878  160.3164 C.3     1  UNL1        0.1035
      3 C         139.0932  140.1189  161.2320 C.3     1  UNL1        0.1470
      4 C         138.3551  141.0499  162.1477 C.3     1  UNL1        0.1036
      5 N         138.4242  142.5317  161.9253 N.3     1  UNL1       -0.2653
      6 C         139.2314  143.0825  160.7872 C.3     1  UNL1        0.1036
      7 C         139.9694  142.1514  159.8715 C.3     1  UNL1        0.1470
      8 C         140.7074  141.2204  158.9559 C.3     1  UNL1        0.1035
      9 O         139.1623  141.6007  161.0096 O.3     1  UNL1       -0.3530
     10 C         141.3764  138.8075  158.2626 C.3     1  UNL1        0.0913
     11 C         142.6285  138.1289  158.7333 C.3     1  UNL1        0.1087
     12 N         143.6319  138.8885  159.5496 N.3     1  UNL1       -0.1780
     13 H         144.5495  138.5097  159.3152 H       1  UNL1        0.1488
     14 S         143.5338  138.8908  161.0463 S.O2    1  UNL1        0.0603
     15 O         143.4446  140.3881  161.0382 O.2     1  UNL1       -0.1530
     16 O         143.6230  137.3935  161.0544 O.2     1  UNL1       -0.1530
     17 C         143.2394  138.8976  165.5367 C.ar    1  UNL1        0.0685
     18 C         144.4546  139.4638  164.8639 C.ar    1  UNL1        0.0116
     19 C         144.5528  139.4616  163.3670 C.ar    1  UNL1        0.0206
     20 C         143.4357  138.8931  162.5431 C.ar    1  UNL1        0.1220
     21 C         142.2205  138.3268  163.2159 C.ar    1  UNL1        0.0206
     22 C         142.1224  138.3291  164.7127 C.ar    1  UNL1        0.0116
     23 N         143.0433  138.9021  168.5302 N.1     1  UNL1       -0.1908
     24 C         143.1413  138.8998  167.0334 C.1     1  UNL1        0.1004
     25 C         137.6862  143.4628  162.8409 C.3     1  UNL1        0.1202
     26 C         138.4146  144.1505  163.9575 C.3     1  UNL1        0.2226
     27 O         139.6160  144.9977  163.6595 O.3     1  UNL1       -0.4740
     28 C         140.9920  144.4771  163.9518 C.ar    1  UNL1        0.1388
     29 C         141.1745  143.0671  164.4299 C.ar    1  UNL1        0.0392
     30 C         142.5506  142.5465  164.7222 C.ar    1  UNL1        0.0327
     31 C         143.7441  143.4358  164.5364 C.ar    1  UNL1        0.1403
     32 F         145.1201  142.9152  164.8287 F       1  UNL1       -0.2042
     33 C         143.5616  144.8458  164.0582 C.ar    1  UNL1        0.0327
     34 C         142.1856  145.3665  163.7659 C.ar    1  UNL1        0.0392
@<TRIPOS>BOND
     1    23    24    3
     2    24    17    1
     3    17    18   ar
     4    18    19   ar
     5    19    20   ar
     6    20    14    1
     7    14    15    2
     8    14    16    2
     9    14    12    1
    10    12    11    1
    11    11    10    1
    12    10     1    1
    13     1     2    1
    14     2     3    1
    15     3     4    1
    16     4     5    1
    17     5    25    1
    18    25    26    1
    19    26    27    1
    20    27    28    1
    21    28    29   ar
    22    29    30   ar
    23    30    31   ar
    24    31    32    1
    25    31    33   ar
    26    33    34   ar
    27     5     6    1
    28     6     7    1
    29     7     8    1
    30     7     9    1
    31    20    21   ar
    32    21    22   ar
    33    22    17   ar
    34     8     1    1
    35     9     3    1
    36    34    28   ar
    37    12    13    1
@<TRIPOS>MOLECULE
*****
 34 37 0 0 0
SMALL
GASTEIGER

@<TRIPOS>ATOM
      1 N         140.0802  140.1632  159.9787 N.3     1  UNL1       -0.2673
      2 C         140.4029  141.6270  160.0345 C.3     1  UNL1        0.1035
      3 C         141.7128  142.0850  160.6041 C.3     1  UNL1        0.1470
      4 C         143.0227  142.5431  161.1737 C.3     1  UNL1        0.1036
      5 N         144.0098  141.5373  161.6875 N.3     1  UNL1       -0.2653
      6 C         143.6870  140.0734  161.6316 C.3     1  UNL1        0.1036
      7 C         142.3772  139.6154  161.0620 C.3     1  UNL1        0.1470
      8 C         141.0673  139.1575  160.4924 C.3     1  UNL1        0.1035
      9 O         142.6999  141.0792  161.1179 O.3     1  UNL1       -0.3530
     10 C         138.7703  139.7052  159.4091 C.3     1  UNL1        0.0913
     11 C         137.5099  139.8606  160.2074 C.3     1  UNL1        0.1087
     12 N         137.2629  138.9819  161.3977 N.3     1  UNL1       -0.1780
     13 H         136.2827  139.1013  161.6535 H       1  UNL1        0.1488
     14 S         138.0639  139.1744  162.6512 S.O2    1  UNL1        0.0603
     15 O         137.6371  140.6114  162.7033 O.2     1  UNL1       -0.1530
     16 O         138.4908  137.7374  162.5990 O.2     1  UNL1       -0.1530
     17 C         140.4672  139.7518  166.4116 C.ar    1  UNL1        0.0685
     18 C         141.0170  138.9209  165.2904 C.ar    1  UNL1        0.0116
     19 C         140.2159  138.7284  164.0368 C.ar    1  UNL1        0.0206
     20 C         138.8650  139.3668  163.9046 C.ar    1  UNL1        0.1220
     21 C         138.3152  140.1977  165.0260 C.ar    1  UNL1        0.0206
     22 C         139.1163  140.3902  166.2795 C.ar    1  UNL1        0.0116
     23 N         142.0693  140.1367  168.9186 N.1     1  UNL1       -0.1908
     24 C         141.2682  139.9442  167.6651 C.1     1  UNL1        0.1004
     25 C         145.3197  141.9953  162.2570 C.3     1  UNL1        0.1202
     26 C         145.6096  141.8071  163.7167 C.3     1  UNL1        0.2226
     27 O         145.0817  142.7903  164.7190 O.3     1  UNL1       -0.4740
     28 C         143.7117  143.3758  164.5455 C.ar    1  UNL1        0.1388
     29 C         143.5536  144.7709  164.0177 C.ar    1  UNL1        0.0392
     30 C         142.1835  145.3564  163.8442 C.ar    1  UNL1        0.0327
     31 C         140.9715  144.5467  164.1984 C.ar    1  UNL1        0.1403
     32 F         139.6015  145.1322  164.0249 F       1  UNL1       -0.2042
     33 C         141.1296  143.1516  164.7262 C.ar    1  UNL1        0.0327
     34 C         142.4997  142.5661  164.8997 C.ar    1  UNL1        0.0392
@<TRIPOS>BOND
     1    23    24    3
     2    24    17    1
     3    17    18   ar
     4    18    19   ar
     5    19    20   ar
     6    20    14    1
     7    14    15    2
     8    14    16    2
     9    14    12    1
    10    12    11    1
    11    11    10    1
    12    10     1    1
    13     1     2    1
    14     2     3    1
    15     3     4    1
    16     4     5    1
    17     5    25    1
    18    25    26    1
    19    26    27    1
    20    27    28    1
    21    28    29   ar
    22    29    30   ar
    23    30    31   ar
    24    31    32    1
    25    31    33   ar
    26    33    34   ar
    27     5     6    1
    28     6     7    1
    29     7     8    1
    30     7     9    1
    31    20    21   ar
    32    21    22   ar
    33    22    17   ar
    34     8     1    1
    35     9     3    1
    36    34    28   ar
    37    12    13    1
@<TRIPOS>MOLECULE
*****
 34 37 0 0 0
SMALL
GASTEIGER

@<TRIPOS>ATOM
      1 N         138.5812  139.8645  164.9458 N.3     1  UNL1       -0.2673
      2 C         138.0431  140.1147  163.5682 C.3     1  UNL1        0.1035
      3 C         138.1495  141.4809  162.9582 C.3     1  UNL1        0.1470
      4 C         138.2558  142.8472  162.3482 C.3     1  UNL1        0.1036
      5 N         138.9002  143.9632  163.1158 N.3     1  UNL1       -0.2653
      6 C         139.4383  143.7129  164.4935 C.3     1  UNL1        0.1036
      7 C         139.3319  142.3467  165.1035 C.3     1  UNL1        0.1470
      8 C         139.2256  140.9805  165.7135 C.3     1  UNL1        0.1035
      9 O         138.7939  142.5969  163.7259 O.3     1  UNL1       -0.3530
     10 C         138.4748  138.4982  165.5559 C.3     1  UNL1        0.0913
     11 C         139.1104  137.3218  164.8761 C.3     1  UNL1        0.1087
     12 N         140.6028  137.2480  164.7442 N.3     1  UNL1       -0.1780
     13 H         140.9941  137.7494  165.5416 H       1  UNL1        0.1488
     14 S         141.2752  137.7918  163.5186 S.O2    1  UNL1        0.0603
     15 O         142.4366  138.2407  164.3549 O.2     1  UNL1       -0.1530
     16 O         140.1137  137.3429  162.6823 O.2     1  UNL1       -0.1530
     17 C         143.2923  139.4231  159.8416 C.ar    1  UNL1        0.0685
     18 C         144.1141  138.8270  160.9458 C.ar    1  UNL1        0.0116
     19 C         143.4417  138.2832  162.1715 C.ar    1  UNL1        0.0206
     20 C         141.9476  138.3355  162.2930 C.ar    1  UNL1        0.1220
     21 C         141.1258  138.9317  161.1887 C.ar    1  UNL1        0.0206
     22 C         141.7981  139.4754  159.9631 C.ar    1  UNL1        0.0116
     23 N         144.6371  140.5107  157.3903 N.1     1  UNL1       -0.1908
     24 C         143.9646  139.9669  158.6160 C.1     1  UNL1        0.1004
     25 C         139.0066  145.3294  162.5059 C.3     1  UNL1        0.1202
     26 C         140.3441  145.8588  162.0805 C.3     1  UNL1        0.2226
     27 O         141.2997  144.9727  161.3378 O.3     1  UNL1       -0.4740
     28 C         142.4150  144.2900  162.0727 C.ar    1  UNL1        0.1388
     29 C         143.0943  143.0984  161.4657 C.ar    1  UNL1        0.0392
     30 C         144.2096  142.4157  162.2007 C.ar    1  UNL1        0.0327
     31 C         144.6455  142.9246  163.5427 C.ar    1  UNL1        0.1403
     32 F         145.7607  142.2420  164.2776 F       1  UNL1       -0.2042
     33 C         143.9661  144.1162  164.1497 C.ar    1  UNL1        0.0327
     34 C         142.8509  144.7989  163.4148 C.ar    1  UNL1        0.0392
@<TRIPOS>BOND
     1    23    24    3
     2    24    17    1
     3    17    18   ar
     4    18    19   ar
     5    19    20   ar
     6    20    14    1
     7    14    15    2
     8    14    16    2
     9    14    12    1
    10    12    11    1
    11    11    10    1
    12    10     1    1
    13     1     2    1
    14     2     3    1
    15     3     4    1
    16     4     5    1
    17     5    25    1
    18    25    26    1
    19    26    27    1
    20    27    28    1
    21    28    29   ar
    22    29    30   ar
    23    30    31   ar
    24    31    32    1
    25    31    33   ar
    26    33    34   ar
    27     5     6    1
    28     6     7    1
    29     7     8    1
    30     7     9    1
    31    20    21   ar
    32    21    22   ar
    33    22    17   ar
    34     8     1    1
    35     9     3    1
    36    34    28   ar
    37    12    13    1
@<TRIPOS>MOLECULE
*****
 34 37 0 0 0
SMALL
GASTEIGER

@<TRIPOS>ATOM
      1 N         139.0835  139.1834  162.7407 N.3     1  UNL1       -0.2673
      2 C         140.4012  139.4770  162.0868 C.3     1  UNL1        0.1035
      3 C         140.6336  140.8061  161.4316 C.3     1  UNL1        0.1470
      4 C         140.8661  142.1353  160.7763 C.3     1  UNL1        0.1036
      5 N         139.7809  143.1708  160.7750 N.3     1  UNL1       -0.2653
      6 C         138.4632  142.8772  161.4289 C.3     1  UNL1        0.1036
      7 C         138.2307  141.5481  162.0841 C.3     1  UNL1        0.1470
      8 C         137.9983  140.2189  162.7393 C.3     1  UNL1        0.1035
      9 O         139.5484  141.8416  161.4302 O.3     1  UNL1       -0.3530
     10 C         138.8510  137.8542  163.3960 C.3     1  UNL1        0.0913
     11 C         139.2670  137.6375  164.8207 C.3     1  UNL1        0.1087
     12 N         138.6276  138.4352  165.9184 N.3     1  UNL1       -0.1780
     13 H         137.9122  139.0165  165.4816 H       1  UNL1        0.1488
     14 S         139.4636  139.3441  166.7698 S.O2    1  UNL1        0.0603
     15 O         138.4776  139.2008  167.8910 O.2     1  UNL1       -0.1530
     16 O         140.4496  139.4874  165.6486 O.2     1  UNL1       -0.1530
     17 C         141.9719  142.0707  169.3240 C.ar    1  UNL1        0.0685
     18 C         140.5599  142.4480  168.9865 C.ar    1  UNL1        0.0116
     19 C         139.7238  141.5391  168.1351 C.ar    1  UNL1        0.0206
     20 C         140.2997  140.2530  167.6212 C.ar    1  UNL1        0.1220
     21 C         141.7118  139.8757  167.9587 C.ar    1  UNL1        0.0206
     22 C         142.5478  140.7846  168.8100 C.ar    1  UNL1        0.0116
     23 N         143.6441  143.8885  171.0268 N.1     1  UNL1       -0.1908
     24 C         142.8080  142.9796  170.1754 C.1     1  UNL1        0.1004
     25 C         140.0133  144.4999  160.1197 C.3     1  UNL1        0.1202
     26 C         140.4880  145.6657  160.9358 C.3     1  UNL1        0.2226
     27 O         140.2431  145.6947  162.4153 O.3     1  UNL1       -0.4740
     28 C         141.1000  144.8748  163.3336 C.ar    1  UNL1        0.1388
     29 C         140.4640  143.9175  164.2974 C.ar    1  UNL1        0.0392
     30 C         141.3210  143.0974  165.2157 C.ar    1  UNL1        0.0327
     31 C         142.8140  143.2348  165.1701 C.ar    1  UNL1        0.1403
     32 F         143.6709  142.4148  166.0883 F       1  UNL1       -0.2042
     33 C         143.4500  144.1920  164.2062 C.ar    1  UNL1        0.0327
     34 C         142.5931  145.0120  163.2880 C.ar    1  UNL1        0.0392
@<TRIPOS>BOND
     1    23    24    3
     2    24    17    1
     3    17    18   ar
     4    18    19   ar
     5    19    20   ar
     6    20    14    1
     7    14    15    2
     8    14    16    2
     9    14    12    1
    10    12    11    1
    11    11    10    1
    12    10     1    1
    13     1     2    1
    14     2     3    1
    15     3     4    1
    16     4     5    1
    17     5    25    1
    18    25    26    1
    19    26    27    1
    20    27    28    1
    21    28    29   ar
    22    29    30   ar
    23    30    31   ar
    24    31    32    1
    25    31    33   ar
    26    33    34   ar
    27     5     6    1
    28     6     7    1
    29     7     8    1
    30     7     9    1
    31    20    21   ar
    32    21    22   ar
    33    22    17   ar
    34     8     1    1
    35     9     3    1
    36    34    28   ar
    37    12    13    1
