@<TRIPOS>MOLECULE
*****
 35 39 0 0 0
SMALL
GASTEIGER

@<TRIPOS>ATOM
      1 C         144.4524  142.9907  163.2888 C.3     1  UNL1        0.0730
      2 N         143.1695  143.7129  163.5762 N.3     1  UNL1       -0.2726
      3 C         142.9104  145.1732  163.3516 C.3     1  UNL1        0.0721
      4 C         141.5012  145.4643  163.7753 C.3     1  UNL1        0.0190
      5 C         140.8895  144.1841  164.2617 C.3     1  UNL1        0.0201
      6 C         139.5497  144.7684  164.5984 C.3     1  UNL1        0.0061
      7 C         139.8088  143.3082  164.8230 C.3     1  UNL1        0.0237
      8 C         141.9206  143.1016  164.1387 C.3     1  UNL1        0.0724
      9 C         139.3346  141.9594  165.2768 C.ar    1  UNL1       -0.0225
     10 C         138.2842  141.2307  164.4921 C.ar    1  UNL1       -0.0043
     11 C         137.8099  139.8819  164.9459 C.ar    1  UNL1        0.0035
     12 C         138.3860  139.2619  166.1843 C.ar    1  UNL1        0.0714
     13 C         139.4364  139.9907  166.9689 C.ar    1  UNL1        0.0035
     14 C         139.9107  141.3394  166.5152 C.ar    1  UNL1       -0.0043
     15 C         137.9118  137.9132  166.6380 C.3     1  UNL1        0.4186
     16 F         137.4375  136.5643  167.0918 F       1  UNL1       -0.1659
     17 F         137.1669  138.5560  167.7702 F       1  UNL1       -0.1659
     18 F         138.6566  137.2704  165.5058 F       1  UNL1       -0.1659
     19 C         145.0546  142.0899  164.3260 C.3     1  UNL1        0.0294
     20 C         145.6295  140.7637  163.9252 C.3     1  UNL1        0.0666
     21 S         144.8447  139.5060  164.1540 S.3     1  UNL1       -0.0756
     22 C         143.7542  140.0934  161.1348 C.3     1  UNL1        0.1340
     23 N         142.9166  139.6893  162.3118 N.ar    1  UNL1       -0.2884
     24 C         143.4178  139.4194  163.6995 C.ar    1  UNL1        0.1932
     25 N         142.2417  139.0475  164.5531 N.ar    1  UNL1       -0.1221
     26 N         141.0136  139.0876  163.6928 N.ar    1  UNL1       -0.1282
     27 C         141.4306  139.4843  162.3076 C.ar    1  UNL1        0.1683
     28 C         140.5214  139.6473  161.1257 C.ar    1  UNL1        0.0534
     29 C         139.4855  140.7322  161.1204 C.ar    1  UNL1        0.0094
     30 C         138.5763  140.8952  159.9386 C.ar    1  UNL1        0.0609
     31 C         138.7030  139.9733  158.7621 C.ar    1  UNL1        0.2610
     32 O         137.7937  140.1363  157.5802 O.2     1  UNL1       -0.2670
     33 N         139.7388  138.8884  158.7674 N.ar    1  UNL1       -0.2921
     34 C         139.8654  137.9666  157.5909 C.3     1  UNL1        0.1336
     35 C         140.6480  138.7254  159.9493 C.ar    1  UNL1        0.0814
@<TRIPOS>BOND
     1    22    23    1
     2    23    24   ar
     3    24    21    1
     4    21    20    1
     5    20    19    1
     6    19     1    1
     7     1     2    1
     8     2     3    1
     9     3     4    1
    10     5     4    1
    11     5     6    1
    12     6     7    1
    13     7     9    1
    14     9    10   ar
    15    10    11   ar
    16    11    12   ar
    17    12    15    1
    18    15    16    1
    19    15    17    1
    20    15    18    1
    21    12    13   ar
    22    13    14   ar
    23     5     8    1
    24    24    25   ar
    25    25    26   ar
    26    26    27   ar
    27    27    28    1
    28    28    29   ar
    29    29    30   ar
    30    30    31   ar
    31    31    32    2
    32    31    33   ar
    33    33    34    1
    34    33    35   ar
    35    27    23   ar
    36    35    28   ar
    37     8     2    1
    38     7     5    1
    39    14     9   ar
@<TRIPOS>MOLECULE
*****
 35 39 0 0 0
SMALL
GASTEIGER

@<TRIPOS>ATOM
      1 C         143.5014  138.1522  160.5740 C.3     1  UNL1        0.0730
      2 N         142.0613  138.3990  160.2348 N.3     1  UNL1       -0.2726
      3 C         141.4822  138.4807  158.8535 C.3     1  UNL1        0.0721
      4 C         140.0104  138.7396  158.9825 C.3     1  UNL1        0.0190
      5 C         139.6798  138.8178  160.4436 C.3     1  UNL1        0.0201
      6 C         138.2129  139.0714  160.2591 C.3     1  UNL1        0.0061
      7 C         138.7920  138.9897  161.6404 C.3     1  UNL1        0.0237
      8 C         140.9473  138.6073  161.2175 C.3     1  UNL1        0.0724
      9 C         138.6137  139.0418  163.1288 C.ar    1  UNL1       -0.0225
     10 C         138.7575  137.7918  163.9456 C.ar    1  UNL1       -0.0043
     11 C         138.5793  137.8439  165.4340 C.ar    1  UNL1        0.0035
     12 C         138.2573  139.1459  166.1057 C.ar    1  UNL1        0.0714
     13 C         138.1135  140.3958  165.2890 C.ar    1  UNL1        0.0035
     14 C         138.2918  140.3437  163.8005 C.ar    1  UNL1       -0.0043
     15 C         138.0790  139.1979  167.5941 C.3     1  UNL1        0.4186
     16 F         137.9008  139.2499  169.0827 F       1  UNL1       -0.1659
     17 F         139.2059  140.1828  167.6946 F       1  UNL1       -0.1659
     18 F         136.9522  138.2130  167.4937 F       1  UNL1       -0.1659
     19 C         144.0164  138.4810  161.9439 C.3     1  UNL1        0.0294
     20 C         144.4985  139.8678  162.2511 C.3     1  UNL1        0.0666
     21 S         143.5159  140.9382  162.6234 S.3     1  UNL1       -0.0756
     22 C         141.8158  139.6193  165.0768 C.3     1  UNL1        0.1340
     23 N         142.6798  140.8425  165.1605 N.ar    1  UNL1       -0.2884
     24 C         143.4613  141.4488  164.0328 C.ar    1  UNL1        0.1932
     25 N         144.1786  142.6553  164.5618 N.ar    1  UNL1       -0.1221
     26 N         143.8405  142.7947  166.0165 N.ar    1  UNL1       -0.1282
     27 C         142.9142  141.6744  166.3866 C.ar    1  UNL1        0.1683
     28 C         142.3256  141.4289  167.7443 C.ar    1  UNL1        0.0534
     29 C         142.5992  140.1385  168.4583 C.ar    1  UNL1        0.0094
     30 C         142.0106  139.8931  169.8160 C.ar    1  UNL1        0.0609
     31 C         141.1483  140.9383  170.4596 C.ar    1  UNL1        0.2610
     32 O         140.5597  140.6928  171.8173 O.2     1  UNL1       -0.2670
     33 N         140.8747  142.2287  169.7456 N.ar    1  UNL1       -0.2921
     34 C         140.0124  143.2737  170.3893 C.3     1  UNL1        0.1336
     35 C         141.4633  142.4740  168.3879 C.ar    1  UNL1        0.0814
@<TRIPOS>BOND
     1    22    23    1
     2    23    24   ar
     3    24    21    1
     4    21    20    1
     5    20    19    1
     6    19     1    1
     7     1     2    1
     8     2     3    1
     9     3     4    1
    10     5     4    1
    11     5     6    1
    12     6     7    1
    13     7     9    1
    14     9    10   ar
    15    10    11   ar
    16    11    12   ar
    17    12    15    1
    18    15    16    1
    19    15    17    1
    20    15    18    1
    21    12    13   ar
    22    13    14   ar
    23     5     8    1
    24    24    25   ar
    25    25    26   ar
    26    26    27   ar
    27    27    28    1
    28    28    29   ar
    29    29    30   ar
    30    30    31   ar
    31    31    32    2
    32    31    33   ar
    33    33    34    1
    34    33    35   ar
    35    27    23   ar
    36    35    28   ar
    37     8     2    1
    38     7     5    1
    39    14     9   ar
@<TRIPOS>MOLECULE
*****
 35 39 0 0 0
SMALL
GASTEIGER

@<TRIPOS>ATOM
      1 C         142.6838  143.2245  160.0556 C.3     1  UNL1        0.0730
      2 N         141.5475  143.9173  160.7476 N.3     1  UNL1       -0.2726
      3 C         141.1187  145.3384  160.5319 C.3     1  UNL1        0.0721
      4 C         139.9468  145.6100  161.4279 C.3     1  UNL1        0.0190
      5 C         139.6512  144.3567  162.1973 C.3     1  UNL1        0.0201
      6 C         138.4903  144.9147  162.9660 C.3     1  UNL1        0.0061
      7 C         138.9190  143.4936  163.1816 C.3     1  UNL1        0.0237
      8 C         140.6405  143.3105  161.7768 C.3     1  UNL1        0.0724
      9 C         138.7439  142.1747  163.8744 C.ar    1  UNL1       -0.0225
     10 C         138.0475  141.0460  163.1737 C.ar    1  UNL1       -0.0043
     11 C         137.8723  139.7272  163.8665 C.ar    1  UNL1        0.0035
     12 C         138.3936  139.5371  165.2601 C.ar    1  UNL1        0.0714
     13 C         139.0900  140.6658  165.9608 C.ar    1  UNL1        0.0035
     14 C         139.2652  141.9846  165.2680 C.ar    1  UNL1       -0.0043
     15 C         138.2185  138.2183  165.9529 C.3     1  UNL1        0.4186
     16 F         138.0433  136.8994  166.6458 F       1  UNL1       -0.1659
     17 F         138.6673  137.5064  164.7112 F       1  UNL1       -0.1659
     18 F         137.7696  138.9302  167.1945 F       1  UNL1       -0.1659
     19 C         143.7899  142.6101  160.8612 C.3     1  UNL1        0.0294
     20 C         143.7311  141.1575  161.2308 C.3     1  UNL1        0.0666
     21 S         144.4516  140.6643  162.4505 S.3     1  UNL1       -0.0756
     22 C         142.5204  139.3236  164.7139 C.3     1  UNL1        0.1340
     23 N         143.2464  140.6305  164.8362 N.ar    1  UNL1       -0.2884
     24 C         144.1341  141.2467  163.7958 C.ar    1  UNL1        0.1932
     25 N         144.6486  142.5477  164.3370 N.ar    1  UNL1       -0.1221
     26 N         144.0789  142.7355  165.7118 N.ar    1  UNL1       -0.1282
     27 C         143.2123  141.5506  166.0204 C.ar    1  UNL1        0.1683
     28 C         142.4461  141.3254  167.2902 C.ar    1  UNL1        0.0534
     29 C         142.3768  139.9527  167.8909 C.ar    1  UNL1        0.0094
     30 C         141.6106  139.7275  169.1607 C.ar    1  UNL1        0.0609
     31 C         140.9138  140.8752  169.8297 C.ar    1  UNL1        0.2610
     32 O         140.1476  140.6500  171.0994 O.2     1  UNL1       -0.2670
     33 N         140.9832  142.2479  169.2289 N.ar    1  UNL1       -0.2921
     34 C         140.2863  143.3954  169.8980 C.3     1  UNL1        0.1336
     35 C         141.7494  142.4730  167.9591 C.ar    1  UNL1        0.0814
@<TRIPOS>BOND
     1    22    23    1
     2    23    24   ar
     3    24    21    1
     4    21    20    1
     5    20    19    1
     6    19     1    1
     7     1     2    1
     8     2     3    1
     9     3     4    1
    10     5     4    1
    11     5     6    1
    12     6     7    1
    13     7     9    1
    14     9    10   ar
    15    10    11   ar
    16    11    12   ar
    17    12    15    1
    18    15    16    1
    19    15    17    1
    20    15    18    1
    21    12    13   ar
    22    13    14   ar
    23     5     8    1
    24    24    25   ar
    25    25    26   ar
    26    26    27   ar
    27    27    28    1
    28    28    29   ar
    29    29    30   ar
    30    30    31   ar
    31    31    32    2
    32    31    33   ar
    33    33    34    1
    34    33    35   ar
    35    27    23   ar
    36    35    28   ar
    37     8     2    1
    38     7     5    1
    39    14     9   ar
@<TRIPOS>MOLECULE
*****
 35 39 0 0 0
SMALL
GASTEIGER

@<TRIPOS>ATOM
      1 C         144.1446  140.7377  161.3949 C.3     1  UNL1        0.0730
      2 N         142.9233  140.0712  160.8342 N.3     1  UNL1       -0.2726
      3 C         142.6937  139.7189  159.3944 C.3     1  UNL1        0.0721
      4 C         141.3458  139.0700  159.2853 C.3     1  UNL1        0.0190
      5 C         140.7423  139.0212  160.6578 C.3     1  UNL1        0.0201
      6 C         139.4647  138.3532  160.2437 C.3     1  UNL1        0.0061
      7 C         139.6944  138.7055  161.6835 C.3     1  UNL1        0.0237
      8 C         141.7174  139.6400  161.6150 C.3     1  UNL1        0.0724
      9 C         139.2219  138.7266  163.1070 C.ar    1  UNL1       -0.0225
     10 C         138.6093  139.9722  163.6755 C.ar    1  UNL1       -0.0043
     11 C         138.1369  139.9934  165.0990 C.ar    1  UNL1        0.0035
     12 C         138.2771  138.7689  165.9540 C.ar    1  UNL1        0.0714
     13 C         138.8897  137.5233  165.3855 C.ar    1  UNL1        0.0035
     14 C         139.3622  137.5022  163.9620 C.ar    1  UNL1       -0.0043
     15 C         137.8047  138.7900  167.3774 C.3     1  UNL1        0.4186
     16 F         137.3322  138.8112  168.8010 F       1  UNL1       -0.1659
     17 F         136.8785  137.6464  167.0870 F       1  UNL1       -0.1659
     18 F         138.7308  139.9336  167.6678 F       1  UNL1       -0.1659
     19 C         144.4831  142.1428  160.9937 C.3     1  UNL1        0.0294
     20 C         143.6433  143.2855  161.4827 C.3     1  UNL1        0.0666
     21 S         143.7158  143.7082  162.9201 S.3     1  UNL1       -0.0756
     22 C         144.1863  143.1059  166.0927 C.3     1  UNL1        0.1340
     23 N         142.8903  142.9637  165.3510 N.ar    1  UNL1       -0.2884
     24 C         142.6740  143.2405  163.8927 C.ar    1  UNL1        0.1932
     25 N         141.2330  142.9677  163.5778 N.ar    1  UNL1       -0.1221
     26 N         140.5587  142.5221  164.8415 N.ar    1  UNL1       -0.1282
     27 C         141.5829  142.5197  165.9374 C.ar    1  UNL1        0.1683
     28 C         141.3421  142.1399  167.3684 C.ar    1  UNL1        0.0534
     29 C         140.4988  143.0171  168.2455 C.ar    1  UNL1        0.0094
     30 C         140.2580  142.6373  169.6765 C.ar    1  UNL1        0.0609
     31 C         140.8605  141.3802  170.2304 C.ar    1  UNL1        0.2610
     32 O         140.6197  141.0004  171.6614 O.2     1  UNL1       -0.2670
     33 N         141.7038  140.5029  169.3533 N.ar    1  UNL1       -0.2921
     34 C         142.3062  139.2459  169.9072 C.3     1  UNL1        0.1336
     35 C         141.9446  140.8828  167.9223 C.ar    1  UNL1        0.0814
@<TRIPOS>BOND
     1    22    23    1
     2    23    24   ar
     3    24    21    1
     4    21    20    1
     5    20    19    1
     6    19     1    1
     7     1     2    1
     8     2     3    1
     9     3     4    1
    10     5     4    1
    11     5     6    1
    12     6     7    1
    13     7     9    1
    14     9    10   ar
    15    10    11   ar
    16    11    12   ar
    17    12    15    1
    18    15    16    1
    19    15    17    1
    20    15    18    1
    21    12    13   ar
    22    13    14   ar
    23     5     8    1
    24    24    25   ar
    25    25    26   ar
    26    26    27   ar
    27    27    28    1
    28    28    29   ar
    29    29    30   ar
    30    30    31   ar
    31    31    32    2
    32    31    33   ar
    33    33    34    1
    34    33    35   ar
    35    27    23   ar
    36    35    28   ar
    37     8     2    1
    38     7     5    1
    39    14     9   ar
@<TRIPOS>MOLECULE
*****
 35 39 0 0 0
SMALL
GASTEIGER

@<TRIPOS>ATOM
      1 C         143.3159  144.1512  161.9887 C.3     1  UNL1        0.0730
      2 N         142.0373  143.8489  161.2649 N.3     1  UNL1       -0.2726
      3 C         141.5718  144.4912  159.9918 C.3     1  UNL1        0.0721
      4 C         140.2466  143.8905  159.6272 C.3     1  UNL1        0.0190
      5 C         139.8931  142.8770  160.6750 C.3     1  UNL1        0.0201
      6 C         138.5846  142.4704  160.0647 C.3     1  UNL1        0.0061
      7 C         139.0501  141.8281  161.3378 C.3     1  UNL1        0.0237
      8 C         140.9998  142.8513  161.6871 C.3     1  UNL1        0.0724
      9 C         138.8321  140.8518  162.4555 C.ar    1  UNL1       -0.0225
     10 C         138.3107  141.3301  163.7781 C.ar    1  UNL1       -0.0043
     11 C         138.0927  140.3537  164.8958 C.ar    1  UNL1        0.0035
     12 C         138.3963  138.8991  164.6908 C.ar    1  UNL1        0.0714
     13 C         138.9177  138.4209  163.3682 C.ar    1  UNL1        0.0035
     14 C         139.1356  139.3972  162.2505 C.ar    1  UNL1       -0.0043
     15 C         138.1783  137.9228  165.8085 C.3     1  UNL1        0.4186
     16 F         137.9604  136.9464  166.9263 F       1  UNL1       -0.1659
     17 F         137.3508  138.9405  166.5362 F       1  UNL1       -0.1659
     18 F         139.0058  136.9051  165.0809 F       1  UNL1       -0.1659
     19 C         144.5357  143.3153  161.7373 C.3     1  UNL1        0.0294
     20 C         144.5224  141.8515  162.0645 C.3     1  UNL1        0.0666
     21 S         145.2903  141.3403  163.2472 S.3     1  UNL1       -0.0756
     22 C         143.1893  142.7173  165.3303 C.3     1  UNL1        0.1340
     23 N         143.6055  141.2762  165.3214 N.ar    1  UNL1       -0.2884
     24 C         144.5712  140.6433  164.3639 C.ar    1  UNL1        0.1932
     25 N         144.6916  139.1909  164.7192 N.ar    1  UNL1       -0.1221
     26 N         143.8002  138.9262  165.8962 N.ar    1  UNL1       -0.1282
     27 C         143.1289  140.2150  166.2685 C.ar    1  UNL1        0.1683
     28 C         142.1526  140.4086  167.3907 C.ar    1  UNL1        0.0534
     29 C         140.7505  139.8911  167.2626 C.ar    1  UNL1        0.0094
     30 C         139.7742  140.0847  168.3848 C.ar    1  UNL1        0.0609
     31 C         140.2001  140.7958  169.6351 C.ar    1  UNL1        0.2610
     32 O         139.2238  140.9893  170.7573 O.2     1  UNL1       -0.2670
     33 N         141.6022  141.3132  169.7632 N.ar    1  UNL1       -0.2921
     34 C         142.0279  142.0242  171.0134 C.3     1  UNL1        0.1336
     35 C         142.5784  141.1196  168.6409 C.ar    1  UNL1        0.0814
@<TRIPOS>BOND
     1    22    23    1
     2    23    24   ar
     3    24    21    1
     4    21    20    1
     5    20    19    1
     6    19     1    1
     7     1     2    1
     8     2     3    1
     9     3     4    1
    10     5     4    1
    11     5     6    1
    12     6     7    1
    13     7     9    1
    14     9    10   ar
    15    10    11   ar
    16    11    12   ar
    17    12    15    1
    18    15    16    1
    19    15    17    1
    20    15    18    1
    21    12    13   ar
    22    13    14   ar
    23     5     8    1
    24    24    25   ar
    25    25    26   ar
    26    26    27   ar
    27    27    28    1
    28    28    29   ar
    29    29    30   ar
    30    30    31   ar
    31    31    32    2
    32    31    33   ar
    33    33    34    1
    34    33    35   ar
    35    27    23   ar
    36    35    28   ar
    37     8     2    1
    38     7     5    1
    39    14     9   ar
@<TRIPOS>MOLECULE
*****
 35 39 0 0 0
SMALL
GASTEIGER

@<TRIPOS>ATOM
      1 C         142.7183  143.6270  160.8431 C.3     1  UNL1        0.0730
      2 N         142.7762  142.1626  160.5237 N.3     1  UNL1       -0.2726
      3 C         143.5345  141.5365  159.3910 C.3     1  UNL1        0.0721
      4 C         143.3128  140.0541  159.4482 C.3     1  UNL1        0.0190
      5 C         142.4175  139.7640  160.6163 C.3     1  UNL1        0.0201
      6 C         142.3814  138.2772  160.4207 C.3     1  UNL1        0.0061
      7 C         141.6231  138.9033  161.5534 C.3     1  UNL1        0.0237
      8 C         142.0858  141.0671  161.2810 C.3     1  UNL1        0.0724
      9 C         140.7267  138.7679  162.7484 C.ar    1  UNL1       -0.0225
     10 C         140.9294  137.6379  163.7139 C.ar    1  UNL1       -0.0043
     11 C         140.0330  137.5025  164.9089 C.ar    1  UNL1        0.0035
     12 C         138.9339  138.4970  165.1384 C.ar    1  UNL1        0.0714
     13 C         138.7311  139.6270  164.1730 C.ar    1  UNL1        0.0035
     14 C         139.6275  139.7624  162.9780 C.ar    1  UNL1       -0.0043
     15 C         138.0374  138.3616  166.3334 C.3     1  UNL1        0.4186
     16 F         137.1410  138.2262  167.5285 F       1  UNL1       -0.1659
     17 F         137.9950  136.8757  166.1333 F       1  UNL1       -0.1659
     18 F         138.0798  139.8476  166.5336 F       1  UNL1       -0.1659
     19 C         141.5367  144.4431  160.4098 C.3     1  UNL1        0.0294
     20 C         140.5531  144.9385  161.4282 C.3     1  UNL1        0.0666
     21 S         140.9946  145.1817  162.8410 S.3     1  UNL1       -0.0756
     22 C         143.0997  143.3443  164.5267 C.3     1  UNL1        0.1340
     23 N         141.6089  143.3537  164.6919 N.ar    1  UNL1       -0.2884
     24 C         140.6413  144.1983  163.9170 C.ar    1  UNL1        0.1932
     25 N         139.2582  143.8867  164.4071 N.ar    1  UNL1       -0.1221
     26 N         139.3711  142.8496  165.4849 N.ar    1  UNL1       -0.1282
     27 C         140.8239  142.5201  165.6609 C.ar    1  UNL1        0.1683
     28 C         141.3918  141.5308  166.6349 C.ar    1  UNL1        0.0534
     29 C         142.0283  140.2675  166.1358 C.ar    1  UNL1        0.0094
     30 C         142.5963  139.2782  167.1098 C.ar    1  UNL1        0.0609
     31 C         142.5277  139.5523  168.5830 C.ar    1  UNL1        0.2610
     32 O         143.0957  138.5630  169.5570 O.2     1  UNL1       -0.2670
     33 N         141.8913  140.8155  169.0822 N.ar    1  UNL1       -0.2921
     34 C         141.8229  141.0894  170.5553 C.3     1  UNL1        0.1336
     35 C         141.3233  141.8048  168.1081 C.ar    1  UNL1        0.0814
@<TRIPOS>BOND
     1    22    23    1
     2    23    24   ar
     3    24    21    1
     4    21    20    1
     5    20    19    1
     6    19     1    1
     7     1     2    1
     8     2     3    1
     9     3     4    1
    10     5     4    1
    11     5     6    1
    12     6     7    1
    13     7     9    1
    14     9    10   ar
    15    10    11   ar
    16    11    12   ar
    17    12    15    1
    18    15    16    1
    19    15    17    1
    20    15    18    1
    21    12    13   ar
    22    13    14   ar
    23     5     8    1
    24    24    25   ar
    25    25    26   ar
    26    26    27   ar
    27    27    28    1
    28    28    29   ar
    29    29    30   ar
    30    30    31   ar
    31    31    32    2
    32    31    33   ar
    33    33    34    1
    34    33    35   ar
    35    27    23   ar
    36    35    28   ar
    37     8     2    1
    38     7     5    1
    39    14     9   ar
@<TRIPOS>MOLECULE
*****
 35 39 0 0 0
SMALL
GASTEIGER

@<TRIPOS>ATOM
      1 C         142.2881  138.0700  160.2163 C.3     1  UNL1        0.0730
      2 N         141.1075  138.7228  159.5606 N.3     1  UNL1       -0.2726
      3 C         140.5339  138.3661  158.2213 C.3     1  UNL1        0.0721
      4 C         139.3652  139.2698  157.9620 C.3     1  UNL1        0.0190
      5 C         139.2163  140.1850  159.1411 C.3     1  UNL1        0.0201
      6 C         138.0267  140.9299  158.6122 C.3     1  UNL1        0.0061
      7 C         138.6002  141.2867  159.9515 C.3     1  UNL1        0.0237
      8 C         140.2932  139.8470  160.1291 C.3     1  UNL1        0.0724
      9 C         138.5756  142.1286  161.1927 C.ar    1  UNL1       -0.0225
     10 C         139.4088  143.3735  161.2711 C.ar    1  UNL1       -0.0043
     11 C         139.3843  144.2154  162.5123 C.ar    1  UNL1        0.0035
     12 C         138.5265  143.8126  163.6749 C.ar    1  UNL1        0.0714
     13 C         137.6932  142.5677  163.5965 C.ar    1  UNL1        0.0035
     14 C         137.7178  141.7258  162.3553 C.ar    1  UNL1       -0.0043
     15 C         138.5019  144.6545  164.9161 C.3     1  UNL1        0.4186
     16 F         138.4773  145.4965  166.1573 F       1  UNL1       -0.1659
     17 F         139.9445  145.0073  164.7053 F       1  UNL1       -0.1659
     18 F         137.0593  144.3018  165.1268 F       1  UNL1       -0.1659
     19 C         142.5976  138.3531  161.6565 C.3     1  UNL1        0.0294
     20 C         143.6818  139.3263  162.0134 C.3     1  UNL1        0.0666
     21 S         144.2300  139.3597  163.4092 S.3     1  UNL1       -0.0756
     22 C         143.2257  138.7410  166.4520 C.3     1  UNL1        0.1340
     23 N         143.2571  140.0868  165.7904 N.ar    1  UNL1       -0.2884
     24 C         143.7187  140.3712  164.3918 C.ar    1  UNL1        0.1932
     25 N         143.5792  141.8447  164.1482 N.ar    1  UNL1       -0.1221
     26 N         143.0314  142.4710  165.3962 N.ar    1  UNL1       -0.1282
     27 C         142.8323  141.3846  166.4112 C.ar    1  UNL1        0.1683
     28 C         142.3016  141.5644  167.8026 C.ar    1  UNL1        0.0534
     29 C         143.1145  142.3003  168.8261 C.ar    1  UNL1        0.0094
     30 C         142.5838  142.4801  170.2175 C.ar    1  UNL1        0.0609
     31 C         141.2401  141.9239  170.5854 C.ar    1  UNL1        0.2610
     32 O         140.7095  142.1037  171.9768 O.2     1  UNL1       -0.2670
     33 N         140.4272  141.1880  169.5619 N.ar    1  UNL1       -0.2921
     34 C         139.0836  140.6318  169.9299 C.3     1  UNL1        0.1336
     35 C         140.9580  141.0082  168.1705 C.ar    1  UNL1        0.0814
@<TRIPOS>BOND
     1    22    23    1
     2    23    24   ar
     3    24    21    1
     4    21    20    1
     5    20    19    1
     6    19     1    1
     7     1     2    1
     8     2     3    1
     9     3     4    1
    10     5     4    1
    11     5     6    1
    12     6     7    1
    13     7     9    1
    14     9    10   ar
    15    10    11   ar
    16    11    12   ar
    17    12    15    1
    18    15    16    1
    19    15    17    1
    20    15    18    1
    21    12    13   ar
    22    13    14   ar
    23     5     8    1
    24    24    25   ar
    25    25    26   ar
    26    26    27   ar
    27    27    28    1
    28    28    29   ar
    29    29    30   ar
    30    30    31   ar
    31    31    32    2
    32    31    33   ar
    33    33    34    1
    34    33    35   ar
    35    27    23   ar
    36    35    28   ar
    37     8     2    1
    38     7     5    1
    39    14     9   ar
@<TRIPOS>MOLECULE
*****
 35 39 0 0 0
SMALL
GASTEIGER

@<TRIPOS>ATOM
      1 C         145.2327  142.0949  163.3505 C.3     1  UNL1        0.0730
      2 N         144.0509  142.9999  163.5363 N.3     1  UNL1       -0.2726
      3 C         144.0054  144.4661  163.2232 C.3     1  UNL1        0.0721
      4 C         142.6335  144.9698  163.5613 C.3     1  UNL1        0.0190
      5 C         141.8312  143.8148  164.0832 C.3     1  UNL1        0.0201
      6 C         140.5720  144.5940  164.3225 C.3     1  UNL1        0.0061
      7 C         140.6176  143.1278  164.6356 C.3     1  UNL1        0.0237
      8 C         142.7072  142.5973  164.0678 C.3     1  UNL1        0.0724
      9 C         139.9432  141.8846  165.1352 C.ar    1  UNL1       -0.0225
     10 C         139.0155  141.1217  164.2366 C.ar    1  UNL1       -0.0043
     11 C         138.3412  139.8785  164.7363 C.ar    1  UNL1        0.0035
     12 C         138.5945  139.3982  166.1345 C.ar    1  UNL1        0.0714
     13 C         139.5222  140.1611  167.0331 C.ar    1  UNL1        0.0035
     14 C         140.1966  141.4043  166.5335 C.ar    1  UNL1       -0.0043
     15 C         137.9202  138.1550  166.6342 C.3     1  UNL1        0.4186
     16 F         137.2458  136.9117  167.1338 F       1  UNL1       -0.1659
     17 F         137.3696  138.9220  167.7997 F       1  UNL1       -0.1659
     18 F         138.4707  137.3879  165.4687 F       1  UNL1       -0.1659
     19 C         145.2179  140.7128  163.9331 C.3     1  UNL1        0.0294
     20 C         144.4325  139.6246  163.2630 C.3     1  UNL1        0.0666
     21 S         144.1456  139.7033  161.7929 S.3     1  UNL1       -0.0756
     22 C         144.1453  142.3697  159.9115 C.3     1  UNL1        0.1340
     23 N         142.9321  141.6628  160.4391 N.ar    1  UNL1       -0.2884
     24 C         142.9322  140.4372  161.3038 C.ar    1  UNL1        0.1932
     25 N         141.5059  140.0742  161.5938 N.ar    1  UNL1       -0.1221
     26 N         140.6243  141.0756  160.9082 N.ar    1  UNL1       -0.1282
     27 C         141.5056  142.0574  160.1945 C.ar    1  UNL1        0.1683
     28 C         141.0420  143.2282  159.3794 C.ar    1  UNL1        0.0534
     29 C         140.8658  144.5699  160.0266 C.ar    1  UNL1        0.0094
     30 C         140.4021  145.7406  159.2116 C.ar    1  UNL1        0.0609
     31 C         140.1148  145.5697  157.7492 C.ar    1  UNL1        0.2610
     32 O         139.6512  146.7404  156.9342 O.2     1  UNL1       -0.2670
     33 N         140.2911  144.2280  157.1021 N.ar    1  UNL1       -0.2921
     34 C         140.0037  144.0571  155.6398 C.3     1  UNL1        0.1336
     35 C         140.7547  143.0572  157.9172 C.ar    1  UNL1        0.0814
@<TRIPOS>BOND
     1    22    23    1
     2    23    24   ar
     3    24    21    1
     4    21    20    1
     5    20    19    1
     6    19     1    1
     7     1     2    1
     8     2     3    1
     9     3     4    1
    10     5     4    1
    11     5     6    1
    12     6     7    1
    13     7     9    1
    14     9    10   ar
    15    10    11   ar
    16    11    12   ar
    17    12    15    1
    18    15    16    1
    19    15    17    1
    20    15    18    1
    21    12    13   ar
    22    13    14   ar
    23     5     8    1
    24    24    25   ar
    25    25    26   ar
    26    26    27   ar
    27    27    28    1
    28    28    29   ar
    29    29    30   ar
    30    30    31   ar
    31    31    32    2
    32    31    33   ar
    33    33    34    1
    34    33    35   ar
    35    27    23   ar
    36    35    28   ar
    37     8     2    1
    38     7     5    1
    39    14     9   ar
@<TRIPOS>MOLECULE
*****
 35 39 0 0 0
SMALL
GASTEIGER

@<TRIPOS>ATOM
      1 C         140.0507  137.6622  162.9930 C.3     1  UNL1        0.0730
      2 N         139.4006  138.8523  163.6341 N.3     1  UNL1       -0.2726
      3 C         138.6077  138.8445  164.9074 C.3     1  UNL1        0.0721
      4 C         138.1463  140.2465  165.1746 C.3     1  UNL1        0.0190
      5 C         138.6540  141.1208  164.0665 C.3     1  UNL1        0.0201
      6 C         138.0605  142.3957  164.5882 C.3     1  UNL1        0.0061
      7 C         138.8533  142.4035  163.3149 C.3     1  UNL1        0.0237
      8 C         139.4292  140.2591  163.1144 C.3     1  UNL1        0.0724
      9 C         139.4261  143.1486  162.1459 C.ar    1  UNL1       -0.0225
     10 C         139.0166  142.7830  160.7499 C.ar    1  UNL1       -0.0043
     11 C         139.5894  143.5281  159.5809 C.ar    1  UNL1        0.0035
     12 C         140.5718  144.6387  159.8078 C.ar    1  UNL1        0.0714
     13 C         140.9814  145.0042  161.2037 C.ar    1  UNL1        0.0035
     14 C         140.4085  144.2591  162.3728 C.ar    1  UNL1       -0.0043
     15 C         141.1446  145.3837  158.6387 C.3     1  UNL1        0.4186
     16 F         141.7175  146.1289  157.4696 F       1  UNL1       -0.1659
     17 F         142.3842  144.5421  158.7097 F       1  UNL1       -0.1659
     18 F         139.9051  146.2254  158.5677 F       1  UNL1       -0.1659
     19 C         141.4981  137.3671  163.2538 C.3     1  UNL1        0.0294
     20 C         142.5615  138.0763  162.4688 C.3     1  UNL1        0.0666
     21 S         143.4854  139.0377  163.1560 S.3     1  UNL1       -0.0756
     22 C         142.9922  138.6359  166.3567 C.3     1  UNL1        0.1340
     23 N         142.7059  139.8805  165.5699 N.ar    1  UNL1       -0.2884
     24 C         142.9326  140.0652  164.0987 C.ar    1  UNL1        0.1932
     25 N         142.5095  141.4577  163.7356 N.ar    1  UNL1       -0.1221
     26 N         142.0213  142.1337  164.9825 N.ar    1  UNL1       -0.1282
     27 C         142.1426  141.1590  166.1162 C.ar    1  UNL1        0.1683
     28 C         141.7668  141.4173  167.5452 C.ar    1  UNL1        0.0534
     29 C         142.6523  142.2619  168.4127 C.ar    1  UNL1        0.0094
     30 C         142.2764  142.5202  169.8417 C.ar    1  UNL1        0.0609
     31 C         141.0149  141.9339  170.4031 C.ar    1  UNL1        0.2610
     32 O         140.6391  142.1923  171.8321 O.2     1  UNL1       -0.2670
     33 N         140.1294  141.0894  169.5356 N.ar    1  UNL1       -0.2921
     34 C         138.8681  140.5032  170.0970 C.3     1  UNL1        0.1336
     35 C         140.5054  140.8311  168.1066 C.ar    1  UNL1        0.0814
@<TRIPOS>BOND
     1    22    23    1
     2    23    24   ar
     3    24    21    1
     4    21    20    1
     5    20    19    1
     6    19     1    1
     7     1     2    1
     8     2     3    1
     9     3     4    1
    10     5     4    1
    11     5     6    1
    12     6     7    1
    13     7     9    1
    14     9    10   ar
    15    10    11   ar
    16    11    12   ar
    17    12    15    1
    18    15    16    1
    19    15    17    1
    20    15    18    1
    21    12    13   ar
    22    13    14   ar
    23     5     8    1
    24    24    25   ar
    25    25    26   ar
    26    26    27   ar
    27    27    28    1
    28    28    29   ar
    29    29    30   ar
    30    30    31   ar
    31    31    32    2
    32    31    33   ar
    33    33    34    1
    34    33    35   ar
    35    27    23   ar
    36    35    28   ar
    37     8     2    1
    38     7     5    1
    39    14     9   ar
