@<TRIPOS>MOLECULE
*****
 28 31 0 0 0
SMALL
GASTEIGER

@<TRIPOS>ATOM
      1 N         138.5027  140.8588  158.7785 N.ar    1  UNL1       -0.1908
      2 N         138.7711  139.4062  159.0395 N.ar    1  UNL1       -0.1469
      3 C         138.8505  139.2090  160.5243 C.ar    1  UNL1        0.1708
      4 C         139.0942  137.9896  161.3632 C.ar    1  UNL1        0.0393
      5 C         139.1186  138.1009  162.8589 C.ar    1  UNL1        0.0047
      6 C         138.8993  139.4316  163.5156 C.ar    1  UNL1        0.0178
      7 C         138.6556  140.6509  162.6767 C.ar    1  UNL1        0.0859
      8 N         138.6312  140.5396  161.1811 N.ar    1  UNL1       -0.2408
      9 C         138.4163  141.5592  160.1021 C.ar    1  UNL1        0.3527
     10 O         138.1599  143.0224  160.3102 O.2     1  UNL1       -0.2444
     11 C         138.9236  139.5428  165.0113 C.ar    1  UNL1        0.0016
     12 C         139.8717  140.4956  165.6772 C.ar    1  UNL1        0.0032
     13 C         139.8961  140.6069  167.1729 C.ar    1  UNL1        0.0372
     14 C         138.9723  139.7653  168.0027 C.ar    1  UNL1        0.1468
     15 C         138.0243  138.8125  167.3368 C.ar    1  UNL1        0.0372
     16 C         137.9999  138.7013  165.8411 C.ar    1  UNL1        0.0032
     17 O         138.9967  139.8765  169.4983 O.3     1  UNL1       -0.4045
     18 C         140.1460  140.5568  170.1812 C.3     1  UNL1        0.5753
     19 F         141.2953  141.2372  170.8640 F       1  UNL1       -0.1328
     20 F         139.3390  141.8171  170.2837 F       1  UNL1       -0.1328
     21 F         140.9529  139.2966  170.0786 F       1  UNL1       -0.1328
     22 C         138.3480  141.4985  157.4306 C.3     1  UNL1        0.2196
     23 C         133.5287  139.9381  155.9403 C.3     1  UNL1        0.0773
     24 C         134.8243  140.6900  156.0178 C.ar    1  UNL1        0.1810
     25 N         135.2277  141.8436  155.1480 N.ar    1  UNL1       -0.0605
     26 O         136.5967  142.2869  155.5713 O.2     1  UNL1       -0.3352
     27 C         137.0396  141.4072  156.7029 C.ar    1  UNL1        0.2613
     28 N         135.9442  140.4203  156.9788 N.ar    1  UNL1       -0.1932
@<TRIPOS>BOND
     1    23    24    1
     2    24    25   ar
     3    25    26   ar
     4    26    27   ar
     5    27    22    1
     6    22     1    1
     7     1     2   ar
     8     2     3   ar
     9     3     4   ar
    10     4     5   ar
    11     5     6   ar
    12     6    11    1
    13    11    12   ar
    14    12    13   ar
    15    13    14   ar
    16    14    17    1
    17    17    18    1
    18    18    19    1
    19    18    20    1
    20    18    21    1
    21    14    15   ar
    22    15    16   ar
    23     6     7   ar
    24     7     8   ar
    25     8     9   ar
    26     9    10    2
    27    27    28   ar
    28    28    24   ar
    29     9     1   ar
    30     8     3   ar
    31    16    11   ar
@<TRIPOS>MOLECULE
*****
 28 31 0 0 0
SMALL
GASTEIGER

@<TRIPOS>ATOM
      1 N         137.9724  141.2295  158.9447 N.ar    1  UNL1       -0.1908
      2 N         137.6621  139.8866  159.5365 N.ar    1  UNL1       -0.1469
      3 C         138.0426  139.9201  160.9871 C.ar    1  UNL1        0.1708
      4 C         137.9628  138.8851  162.0698 C.ar    1  UNL1        0.0393
      5 C         138.4284  139.2138  163.4572 C.ar    1  UNL1        0.0047
      6 C         138.9739  140.5775  163.7620 C.ar    1  UNL1        0.0178
      7 C         139.0536  141.6125  162.6792 C.ar    1  UNL1        0.0859
      8 N         138.5880  141.2838  161.2918 N.ar    1  UNL1       -0.2408
      9 C         138.5446  142.0930  160.0295 C.ar    1  UNL1        0.3527
     10 O         138.9945  143.5160  159.8786 O.2     1  UNL1       -0.2444
     11 C         139.4395  140.9062  165.1495 C.ar    1  UNL1        0.0016
     12 C         139.8938  142.2974  165.4783 C.ar    1  UNL1        0.0032
     13 C         140.3594  142.6260  166.8659 C.ar    1  UNL1        0.0372
     14 C         140.3708  141.5634  167.9246 C.ar    1  UNL1        0.1468
     15 C         139.9165  140.1722  167.5957 C.ar    1  UNL1        0.0372
     16 C         139.4509  139.8436  166.2082 C.ar    1  UNL1        0.0032
     17 O         140.8364  141.8920  169.3120 O.3     1  UNL1       -0.4045
     18 C         140.0362  142.8267  170.1700 C.3     1  UNL1        0.5753
     19 F         139.2361  143.7615  171.0279 F       1  UNL1       -0.1328
     20 F         141.0709  143.8945  169.9716 F       1  UNL1       -0.1328
     21 F         139.0016  141.7589  170.3683 F       1  UNL1       -0.1328
     22 C         137.7496  141.6373  157.5185 C.3     1  UNL1        0.2196
     23 C         136.5262  138.3104  153.6049 C.3     1  UNL1        0.0773
     24 C         136.4130  139.2147  154.7962 C.ar    1  UNL1        0.1810
     25 N         135.1549  139.5237  155.5524 N.ar    1  UNL1       -0.0605
     26 O         135.5024  140.4688  156.6641 O.2     1  UNL1       -0.3352
     27 C         136.9754  140.7440  156.5952 C.ar    1  UNL1        0.2613
     28 N         137.5382  139.9689  155.4408 N.ar    1  UNL1       -0.1932
@<TRIPOS>BOND
     1    23    24    1
     2    24    25   ar
     3    25    26   ar
     4    26    27   ar
     5    27    22    1
     6    22     1    1
     7     1     2   ar
     8     2     3   ar
     9     3     4   ar
    10     4     5   ar
    11     5     6   ar
    12     6    11    1
    13    11    12   ar
    14    12    13   ar
    15    13    14   ar
    16    14    17    1
    17    17    18    1
    18    18    19    1
    19    18    20    1
    20    18    21    1
    21    14    15   ar
    22    15    16   ar
    23     6     7   ar
    24     7     8   ar
    25     8     9   ar
    26     9    10    2
    27    27    28   ar
    28    28    24   ar
    29     9     1   ar
    30     8     3   ar
    31    16    11   ar
@<TRIPOS>MOLECULE
*****
 28 31 0 0 0
SMALL
GASTEIGER

@<TRIPOS>ATOM
      1 N         140.8012  145.1003  160.1888 N.ar    1  UNL1       -0.1908
      2 N         139.4707  145.4351  160.7952 N.ar    1  UNL1       -0.1469
      3 C         139.3589  144.7041  162.1003 C.ar    1  UNL1        0.1708
      4 C         138.2715  144.6531  163.1322 C.ar    1  UNL1        0.0393
      5 C         138.4455  143.8154  164.3642 C.ar    1  UNL1        0.0047
      6 C         139.7069  143.0288  164.5644 C.ar    1  UNL1        0.0178
      7 C         140.7943  143.0798  163.5325 C.ar    1  UNL1        0.0859
      8 N         140.6203  143.9174  162.3004 N.ar    1  UNL1       -0.2408
      9 C         141.5117  144.1623  161.1191 C.ar    1  UNL1        0.3527
     10 O         142.8743  143.5727  160.9055 O.2     1  UNL1       -0.2444
     11 C         139.8808  142.1911  165.7966 C.ar    1  UNL1        0.0016
     12 C         140.4861  142.7901  167.0314 C.ar    1  UNL1        0.0032
     13 C         140.6600  141.9524  168.2635 C.ar    1  UNL1        0.0372
     14 C         140.2287  140.5158  168.2608 C.ar    1  UNL1        0.1468
     15 C         139.6234  139.9168  167.0259 C.ar    1  UNL1        0.0372
     16 C         139.4495  140.7545  165.7938 C.ar    1  UNL1        0.0032
     17 O         140.4026  139.6781  169.4929 O.3     1  UNL1       -0.4045
     18 C         141.6757  139.7599  170.2818 C.3     1  UNL1        0.5753
     19 F         142.9489  139.8418  171.0708 F       1  UNL1       -0.1328
     20 F         140.9875  140.6155  171.3037 F       1  UNL1       -0.1328
     21 F         142.3639  138.9044  169.2598 F       1  UNL1       -0.1328
     22 C         141.3286  145.6133  158.8817 C.3     1  UNL1        0.2196
     23 C         138.5726  144.1614  154.6181 C.3     1  UNL1        0.0773
     24 C         139.1683  144.9895  155.7178 C.ar    1  UNL1        0.1810
     25 N         138.9519  146.4584  155.9316 N.ar    1  UNL1       -0.0605
     26 O         139.7348  146.8709  157.1428 O.2     1  UNL1       -0.3352
     27 C         140.4351  145.6569  157.6776 C.ar    1  UNL1        0.2613
     28 N         140.0850  144.4942  156.7970 N.ar    1  UNL1       -0.1932
@<TRIPOS>BOND
     1    23    24    1
     2    24    25   ar
     3    25    26   ar
     4    26    27   ar
     5    27    22    1
     6    22     1    1
     7     1     2   ar
     8     2     3   ar
     9     3     4   ar
    10     4     5   ar
    11     5     6   ar
    12     6    11    1
    13    11    12   ar
    14    12    13   ar
    15    13    14   ar
    16    14    17    1
    17    17    18    1
    18    18    19    1
    19    18    20    1
    20    18    21    1
    21    14    15   ar
    22    15    16   ar
    23     6     7   ar
    24     7     8   ar
    25     8     9   ar
    26     9    10    2
    27    27    28   ar
    28    28    24   ar
    29     9     1   ar
    30     8     3   ar
    31    16    11   ar
@<TRIPOS>MOLECULE
*****
 28 31 0 0 0
SMALL
GASTEIGER

@<TRIPOS>ATOM
      1 N         144.0252  140.6795  158.9414 N.ar    1  UNL1       -0.1908
      2 N         143.9934  139.2854  159.4940 N.ar    1  UNL1       -0.1469
      3 C         143.7746  139.3787  160.9750 C.ar    1  UNL1        0.1708
      4 C         143.6562  138.3292  162.0402 C.ar    1  UNL1        0.0393
      5 C         143.4345  138.7315  163.4680 C.ar    1  UNL1        0.0047
      6 C         143.3311  140.1833  163.8308 C.ar    1  UNL1        0.0178
      7 C         143.4495  141.2328  162.7657 C.ar    1  UNL1        0.0859
      8 N         143.6713  140.8305  161.3378 N.ar    1  UNL1       -0.2408
      9 C         143.8261  141.6344  160.0809 C.ar    1  UNL1        0.3527
     10 O         143.7885  143.1306  159.9811 O.2     1  UNL1       -0.2444
     11 C         143.1093  140.5857  165.2588 C.ar    1  UNL1        0.0016
     12 C         143.3479  142.0041  165.6840 C.ar    1  UNL1        0.0032
     13 C         143.1261  142.4065  167.1120 C.ar    1  UNL1        0.0372
     14 C         142.6657  141.3902  168.1147 C.ar    1  UNL1        0.1468
     15 C         142.4271  139.9716  167.6893 C.ar    1  UNL1        0.0372
     16 C         142.6489  139.5694  166.2614 C.ar    1  UNL1        0.0032
     17 O         142.4439  141.7924  169.5426 O.3     1  UNL1       -0.4045
     18 C         141.7480  143.0830  169.8587 C.3     1  UNL1        0.5753
     19 F         141.0521  144.3737  170.1749 F       1  UNL1       -0.1328
     20 F         142.9833  143.5799  170.5495 F       1  UNL1       -0.1328
     21 F         140.5128  142.5862  169.1679 F       1  UNL1       -0.1328
     22 C         144.2216  141.0532  157.5020 C.3     1  UNL1        0.2196
     23 C         148.6046  141.8715  154.6734 C.3     1  UNL1        0.0773
     24 C         147.5563  141.9730  155.7415 C.ar    1  UNL1        0.1810
     25 N         147.5896  142.8941  156.9250 N.ar    1  UNL1       -0.0605
     26 O         146.3445  142.6616  157.7285 O.2     1  UNL1       -0.3352
     27 C         145.5416  141.5968  157.0416 C.ar    1  UNL1        0.2613
     28 N         146.2905  141.1713  155.8136 N.ar    1  UNL1       -0.1932
@<TRIPOS>BOND
     1    23    24    1
     2    24    25   ar
     3    25    26   ar
     4    26    27   ar
     5    27    22    1
     6    22     1    1
     7     1     2   ar
     8     2     3   ar
     9     3     4   ar
    10     4     5   ar
    11     5     6   ar
    12     6    11    1
    13    11    12   ar
    14    12    13   ar
    15    13    14   ar
    16    14    17    1
    17    17    18    1
    18    18    19    1
    19    18    20    1
    20    18    21    1
    21    14    15   ar
    22    15    16   ar
    23     6     7   ar
    24     7     8   ar
    25     8     9   ar
    26     9    10    2
    27    27    28   ar
    28    28    24   ar
    29     9     1   ar
    30     8     3   ar
    31    16    11   ar
@<TRIPOS>MOLECULE
*****
 28 31 0 0 0
SMALL
GASTEIGER

@<TRIPOS>ATOM
      1 N         138.7521  141.7695  159.2910 N.ar    1  UNL1       -0.1908
      2 N         138.0910  142.9033  160.0173 N.ar    1  UNL1       -0.1469
      3 C         138.2408  142.6605  161.4899 C.ar    1  UNL1        0.1708
      4 C         137.7883  143.4426  162.6872 C.ar    1  UNL1        0.0393
      5 C         138.0896  142.9409  164.0683 C.ar    1  UNL1        0.0047
      6 C         138.8433  141.6571  164.2521 C.ar    1  UNL1        0.0178
      7 C         139.2958  140.8750  163.0549 C.ar    1  UNL1        0.0859
      8 N         138.9946  141.3767  161.6737 N.ar    1  UNL1       -0.2408
      9 C         139.3105  140.8261  160.3147 C.ar    1  UNL1        0.3527
     10 O         140.0543  139.5551  160.0295 O.2     1  UNL1       -0.2444
     11 C         139.1446  141.1555  165.6333 C.ar    1  UNL1        0.0016
     12 C         140.0889  141.9145  166.5176 C.ar    1  UNL1        0.0032
     13 C         140.3902  141.4128  167.8988 C.ar    1  UNL1        0.0372
     14 C         139.7470  140.1521  168.3957 C.ar    1  UNL1        0.1468
     15 C         138.8026  139.3930  167.5113 C.ar    1  UNL1        0.0372
     16 C         138.5014  139.8947  166.1302 C.ar    1  UNL1        0.0032
     17 O         140.0482  139.6504  169.7768 O.3     1  UNL1       -0.4045
     18 C         141.3512  139.9980  170.4334 C.3     1  UNL1        0.5753
     19 F         142.6544  140.3457  171.0900 F       1  UNL1       -0.1328
     20 F         142.0482  138.9667  169.5964 F       1  UNL1       -0.1328
     21 F         140.6543  141.0293  171.2704 F       1  UNL1       -0.1328
     22 C         138.8394  141.6076  157.8023 C.3     1  UNL1        0.2196
     23 C         134.1853  140.0638  155.8433 C.3     1  UNL1        0.0773
     24 C         135.4473  140.8396  156.0790 C.ar    1  UNL1        0.1810
     25 N         135.8701  142.0790  155.3473 N.ar    1  UNL1       -0.0605
     26 O         137.1922  142.5175  155.9038 O.2     1  UNL1       -0.3352
     27 C         137.5866  141.5492  156.9795 C.ar    1  UNL1        0.2613
     28 N         136.5082  140.5122  157.0877 N.ar    1  UNL1       -0.1932
@<TRIPOS>BOND
     1    23    24    1
     2    24    25   ar
     3    25    26   ar
     4    26    27   ar
     5    27    22    1
     6    22     1    1
     7     1     2   ar
     8     2     3   ar
     9     3     4   ar
    10     4     5   ar
    11     5     6   ar
    12     6    11    1
    13    11    12   ar
    14    12    13   ar
    15    13    14   ar
    16    14    17    1
    17    17    18    1
    18    18    19    1
    19    18    20    1
    20    18    21    1
    21    14    15   ar
    22    15    16   ar
    23     6     7   ar
    24     7     8   ar
    25     8     9   ar
    26     9    10    2
    27    27    28   ar
    28    28    24   ar
    29     9     1   ar
    30     8     3   ar
    31    16    11   ar
@<TRIPOS>MOLECULE
*****
 28 31 0 0 0
SMALL
GASTEIGER

@<TRIPOS>ATOM
      1 N         142.4546  138.2919  159.5355 N.ar    1  UNL1       -0.1908
      2 N         143.7804  138.5283  160.1962 N.ar    1  UNL1       -0.1469
      3 C         143.5325  138.7912  161.6520 C.ar    1  UNL1        0.1708
      4 C         144.4624  139.0883  162.7908 C.ar    1  UNL1        0.0393
      5 C         143.9133  139.3115  164.1687 C.ar    1  UNL1        0.0047
      6 C         142.4343  139.2376  164.4078 C.ar    1  UNL1        0.0178
      7 C         141.5044  138.9405  163.2690 C.ar    1  UNL1        0.0859
      8 N         142.0535  138.7172  161.8911 N.ar    1  UNL1       -0.2408
      9 C         141.3874  138.4087  160.5830 C.ar    1  UNL1        0.3527
     10 O         139.9128  138.2455  160.3614 O.2     1  UNL1       -0.2444
     11 C         141.8852  139.4609  165.7858 C.ar    1  UNL1        0.0016
     12 C         142.7916  139.3726  166.9776 C.ar    1  UNL1        0.0032
     13 C         142.2425  139.5958  168.3556 C.ar    1  UNL1        0.0372
     14 C         140.7871  139.9073  168.5416 C.ar    1  UNL1        0.1468
     15 C         139.8807  139.9956  167.3497 C.ar    1  UNL1        0.0372
     16 C         140.4298  139.7723  165.9718 C.ar    1  UNL1        0.0032
     17 O         140.2380  140.1306  169.9195 O.3     1  UNL1       -0.4045
     18 C         139.6983  141.4766  170.3028 C.3     1  UNL1        0.5753
     19 F         139.1586  142.8227  170.6861 F       1  UNL1       -0.1328
     20 F         138.3005  140.9378  170.2268 F       1  UNL1       -0.1328
     21 F         141.0961  142.0154  170.3787 F       1  UNL1       -0.1328
     22 C         142.2348  137.9914  158.0824 C.3     1  UNL1        0.2196
     23 C         145.8342  140.5313  155.1713 C.3     1  UNL1        0.0773
     24 C         144.9716  139.4474  155.7466 C.ar    1  UNL1        0.1810
     25 N         144.9937  138.0003  155.3523 N.ar    1  UNL1       -0.0605
     26 O         143.9712  137.2788  156.1792 O.2     1  UNL1       -0.3352
     27 C         143.3171  138.2799  157.0848 C.ar    1  UNL1        0.2613
     28 N         143.9353  139.6202  156.8174 N.ar    1  UNL1       -0.1932
@<TRIPOS>BOND
     1    23    24    1
     2    24    25   ar
     3    25    26   ar
     4    26    27   ar
     5    27    22    1
     6    22     1    1
     7     1     2   ar
     8     2     3   ar
     9     3     4   ar
    10     4     5   ar
    11     5     6   ar
    12     6    11    1
    13    11    12   ar
    14    12    13   ar
    15    13    14   ar
    16    14    17    1
    17    17    18    1
    18    18    19    1
    19    18    20    1
    20    18    21    1
    21    14    15   ar
    22    15    16   ar
    23     6     7   ar
    24     7     8   ar
    25     8     9   ar
    26     9    10    2
    27    27    28   ar
    28    28    24   ar
    29     9     1   ar
    30     8     3   ar
    31    16    11   ar
@<TRIPOS>MOLECULE
*****
 28 31 0 0 0
SMALL
GASTEIGER

@<TRIPOS>ATOM
      1 N         141.0730  138.4563  158.7249 N.ar    1  UNL1       -0.1908
      2 N         139.5918  138.6615  158.8426 N.ar    1  UNL1       -0.1469
      3 C         139.2660  138.8674  160.2923 C.ar    1  UNL1        0.1708
      4 C         137.9693  139.1158  161.0041 C.ar    1  UNL1        0.0393
      5 C         137.9526  139.2862  162.4943 C.ar    1  UNL1        0.0047
      6 C         139.2325  139.2082  163.2726 C.ar    1  UNL1        0.0178
      7 C         140.5292  138.9598  162.5607 C.ar    1  UNL1        0.0859
      8 N         140.5459  138.7894  161.0705 N.ar    1  UNL1       -0.2408
      9 C         141.6627  138.5353  160.1019 C.ar    1  UNL1        0.3527
     10 O         143.1143  138.3863  160.4492 O.2     1  UNL1       -0.2444
     11 C         139.2157  139.3786  164.7628 C.ar    1  UNL1        0.0016
     12 C         140.3079  140.1506  165.4418 C.ar    1  UNL1        0.0032
     13 C         140.2910  140.3210  166.9321 C.ar    1  UNL1        0.0372
     14 C         139.1820  139.7194  167.7432 C.ar    1  UNL1        0.1468
     15 C         138.0897  138.9474  167.0642 C.ar    1  UNL1        0.0372
     16 C         138.1066  138.7770  165.5740 C.ar    1  UNL1        0.0032
     17 O         139.1651  139.8898  169.2334 O.3     1  UNL1       -0.4045
     18 C         140.3129  140.5645  169.9241 C.3     1  UNL1        0.5753
     19 F         141.4609  141.2392  170.6149 F       1  UNL1       -0.1328
     20 F         141.0556  139.2618  169.9624 F       1  UNL1       -0.1328
     21 F         139.5703  141.8671  169.8859 F       1  UNL1       -0.1328
     22 C         141.8313  138.2145  157.4535 C.3     1  UNL1        0.2196
     23 C         143.6499  133.3254  156.6341 C.3     1  UNL1        0.0773
     24 C         142.8196  134.5717  156.5483 C.ar    1  UNL1        0.1810
     25 N         141.6166  134.7713  155.6747 N.ar    1  UNL1       -0.0605
     26 O         141.1000  136.1601  155.9075 O.2     1  UNL1       -0.3352
     27 C         141.9837  136.8190  156.9249 C.ar    1  UNL1        0.2613
     28 N         143.0464  135.8373  157.3210 N.ar    1  UNL1       -0.1932
@<TRIPOS>BOND
     1    23    24    1
     2    24    25   ar
     3    25    26   ar
     4    26    27   ar
     5    27    22    1
     6    22     1    1
     7     1     2   ar
     8     2     3   ar
     9     3     4   ar
    10     4     5   ar
    11     5     6   ar
    12     6    11    1
    13    11    12   ar
    14    12    13   ar
    15    13    14   ar
    16    14    17    1
    17    17    18    1
    18    18    19    1
    19    18    20    1
    20    18    21    1
    21    14    15   ar
    22    15    16   ar
    23     6     7   ar
    24     7     8   ar
    25     8     9   ar
    26     9    10    2
    27    27    28   ar
    28    28    24   ar
    29     9     1   ar
    30     8     3   ar
    31    16    11   ar
@<TRIPOS>MOLECULE
*****
 28 31 0 0 0
SMALL
GASTEIGER

@<TRIPOS>ATOM
      1 N         140.6542  138.5102  159.1272 N.ar    1  UNL1       -0.1908
      2 N         139.4227  138.0842  159.8701 N.ar    1  UNL1       -0.1469
      3 C         139.6883  138.2434  161.3378 C.ar    1  UNL1        0.1708
      4 C         138.8396  137.9786  162.5459 C.ar    1  UNL1        0.0393
      5 C         139.3866  138.2382  163.9182 C.ar    1  UNL1        0.0047
      6 C         140.7824  138.7626  164.0824 C.ar    1  UNL1        0.0178
      7 C         141.6311  139.0274  162.8743 C.ar    1  UNL1        0.0859
      8 N         141.0840  138.7678  161.5020 N.ar    1  UNL1       -0.2408
      9 C         141.6810  138.9327  160.1358 C.ar    1  UNL1        0.3527
     10 O         143.0622  139.4323  159.8316 O.2     1  UNL1       -0.2444
     11 C         141.3294  139.0222  165.4549 C.ar    1  UNL1        0.0016
     12 C         142.7119  138.5618  165.8106 C.ar    1  UNL1        0.0032
     13 C         143.2589  138.8213  167.1830 C.ar    1  UNL1        0.0372
     14 C         142.4234  139.5413  168.1996 C.ar    1  UNL1        0.1468
     15 C         141.0408  140.0017  167.8438 C.ar    1  UNL1        0.0372
     16 C         140.4938  139.7421  166.4714 C.ar    1  UNL1        0.0032
     17 O         142.9703  139.8009  169.5720 O.3     1  UNL1       -0.4045
     18 C         142.9167  141.1833  170.1515 C.3     1  UNL1        0.5753
     19 F         142.8631  142.5659  170.7312 F       1  UNL1       -0.1328
     20 F         142.1871  140.6527  171.3498 F       1  UNL1       -0.1328
     21 F         143.6464  141.7140  168.9532 F       1  UNL1       -0.1328
     22 C         140.8284  138.5132  157.6374 C.3     1  UNL1        0.2196
     23 C         143.3852  134.4786  155.3868 C.3     1  UNL1        0.0773
     24 C         143.0796  135.8255  155.9718 C.ar    1  UNL1        0.1810
     25 N         144.0405  136.9703  156.0987 N.ar    1  UNL1       -0.0605
     26 O         143.3142  138.1165  156.7381 O.2     1  UNL1       -0.3352
     27 C         141.9043  137.6801  157.0064 C.ar    1  UNL1        0.2613
     28 N         141.7593  136.2641  156.5328 N.ar    1  UNL1       -0.1932
@<TRIPOS>BOND
     1    23    24    1
     2    24    25   ar
     3    25    26   ar
     4    26    27   ar
     5    27    22    1
     6    22     1    1
     7     1     2   ar
     8     2     3   ar
     9     3     4   ar
    10     4     5   ar
    11     5     6   ar
    12     6    11    1
    13    11    12   ar
    14    12    13   ar
    15    13    14   ar
    16    14    17    1
    17    17    18    1
    18    18    19    1
    19    18    20    1
    20    18    21    1
    21    14    15   ar
    22    15    16   ar
    23     6     7   ar
    24     7     8   ar
    25     8     9   ar
    26     9    10    2
    27    27    28   ar
    28    28    24   ar
    29     9     1   ar
    30     8     3   ar
    31    16    11   ar
@<TRIPOS>MOLECULE
*****
 28 31 0 0 0
SMALL
GASTEIGER

@<TRIPOS>ATOM
      1 N         143.3524  142.5341  158.9273 N.ar    1  UNL1       -0.1908
      2 N         142.6792  143.8306  159.2675 N.ar    1  UNL1       -0.1469
      3 C         142.3664  143.8196  160.7345 C.ar    1  UNL1        0.1708
      4 C         141.7067  144.8280  161.6277 C.ar    1  UNL1        0.0393
      5 C         141.5268  144.5331  163.0873 C.ar    1  UNL1        0.0047
      6 C         142.0067  143.2297  163.6538 C.ar    1  UNL1        0.0178
      7 C         142.6664  142.2212  162.7606 C.ar    1  UNL1        0.0859
      8 N         142.8463  142.5162  161.3010 N.ar    1  UNL1       -0.2408
      9 C         143.4556  141.7217  160.1841 C.ar    1  UNL1        0.3527
     10 O         144.0618  140.3548  160.3031 O.2     1  UNL1       -0.2444
     11 C         141.8267  142.9347  165.1135 C.ar    1  UNL1        0.0016
     12 C         142.9889  142.4526  165.9300 C.ar    1  UNL1        0.0032
     13 C         142.8090  142.1576  167.3898 C.ar    1  UNL1        0.0372
     14 C         141.4669  142.3448  168.0329 C.ar    1  UNL1        0.1468
     15 C         140.3046  142.8270  167.2162 C.ar    1  UNL1        0.0372
     16 C         140.4846  143.1219  165.7566 C.ar    1  UNL1        0.0032
     17 O         141.2869  142.0499  169.4925 O.3     1  UNL1       -0.4045
     18 C         140.2655  142.8054  170.2899 C.3     1  UNL1        0.5753
     19 F         139.2440  143.5609  171.0873 F       1  UNL1       -0.1328
     20 F         139.4278  141.5653  170.3917 F       1  UNL1       -0.1328
     21 F         141.1032  144.0454  170.1881 F       1  UNL1       -0.1328
     22 C         143.8371  142.1221  157.5689 C.3     1  UNL1        0.2196
     23 C         148.3731  142.0848  154.8661 C.3     1  UNL1        0.0773
     24 C         147.3645  142.2879  155.9576 C.ar    1  UNL1        0.1810
     25 N         147.6338  142.8855  157.3069 N.ar    1  UNL1       -0.0605
     26 O         146.3452  142.8961  158.0747 O.2     1  UNL1       -0.3352
     27 C         145.2795  142.3051  157.2000 C.ar    1  UNL1        0.2613
     28 N         145.9094  141.9293  155.8916 N.ar    1  UNL1       -0.1932
@<TRIPOS>BOND
     1    23    24    1
     2    24    25   ar
     3    25    26   ar
     4    26    27   ar
     5    27    22    1
     6    22     1    1
     7     1     2   ar
     8     2     3   ar
     9     3     4   ar
    10     4     5   ar
    11     5     6   ar
    12     6    11    1
    13    11    12   ar
    14    12    13   ar
    15    13    14   ar
    16    14    17    1
    17    17    18    1
    18    18    19    1
    19    18    20    1
    20    18    21    1
    21    14    15   ar
    22    15    16   ar
    23     6     7   ar
    24     7     8   ar
    25     8     9   ar
    26     9    10    2
    27    27    28   ar
    28    28    24   ar
    29     9     1   ar
    30     8     3   ar
    31    16    11   ar
