@<TRIPOS>MOLECULE
*****
 35 38 0 0 0
SMALL
GASTEIGER

@<TRIPOS>ATOM
      1 C         139.7354  139.7961  167.9173 C.ar    1  UNL1        0.1383
      2 N         138.5728  139.6025  168.8452 N.ar    1  UNL1       -0.2088
      3 C         138.5590  140.2827  170.1820 C.ar    1  UNL1        0.2000
      4 N         139.7076  141.1564  170.5910 N.ar    1  UNL1       -0.2238
      5 C         140.8702  141.3499  169.6631 C.ar    1  UNL1        0.0887
      6 C         142.0189  142.2236  170.0720 C.ar    1  UNL1        0.0195
      7 C         143.1814  142.4171  169.1441 C.ar    1  UNL1        0.0047
      8 C         143.1953  141.7369  167.8072 C.ar    1  UNL1        0.0371
      9 C         142.0466  140.8632  167.3983 C.ar    1  UNL1        0.1432
     10 C         140.8841  140.6697  168.3263 C.ar    1  UNL1        0.0833
     11 N         139.7493  139.1159  166.5804 N.pl3   1  UNL1       -0.2978
     12 H         140.1429  138.2181  166.4889 H       1  UNL1        0.1536
     13 C         137.9919  141.1789  162.9880 C.ar    1  UNL1        0.1414
     14 C         138.3002  141.9648  164.2280 C.ar    1  UNL1        0.0384
     15 C         138.8860  141.2771  165.4254 C.ar    1  UNL1        0.0178
     16 C         139.1635  139.8035  165.3829 C.ar    1  UNL1        0.0492
     17 C         138.8552  139.0177  164.1431 C.ar    1  UNL1        0.0134
     18 C         138.2694  139.7054  162.9456 C.ar    1  UNL1        0.0139
     19 C         137.9610  138.9195  161.7056 C.3     1  UNL1        0.0343
     20 O         137.4061  141.8666  161.7905 O.3     1  UNL1       -0.4522
     21 C         140.9063  145.1968  158.2327 C.3     1  UNL1        0.0521
     22 C         140.0312  144.3642  159.1221 C.ar    1  UNL1        0.0596
     23 C         139.3699  143.1310  158.5820 C.ar    1  UNL1        0.0179
     24 C         138.4949  142.2984  159.4714 C.ar    1  UNL1        0.0403
     25 C         138.2811  142.6991  160.9011 C.ar    1  UNL1        0.1643
     26 C         138.9425  143.9324  161.4412 C.ar    1  UNL1        0.1358
     27 N         139.8175  144.7649  160.5517 N.ar    1  UNL1       -0.2449
     28 O         142.0605  140.1831  166.0615 O.3     1  UNL1       -0.4698
     29 C         143.2153  139.3057  165.6783 C.3     1  UNL1        0.2413
     30 C         143.6716  138.2189  166.6059 C.3     1  UNL1        0.0574
     31 C         143.9137  139.5153  164.3675 C.2     1  UNL1        0.2660
     32 O         145.1298  140.3907  164.2971 O.2     1  UNL1       -0.2710
     33 N         143.3962  138.8494  163.1270 N.am    1  UNL1       -0.2731
     34 C         144.0946  139.0590  161.8162 C.3     1  UNL1        0.1150
     35 C         142.1802  137.9740  163.1974 C.3     1  UNL1        0.1150
@<TRIPOS>BOND
     1    21    22    1
     2    22    23   ar
     3    23    24   ar
     4    24    25   ar
     5    25    20    1
     6    20    13    1
     7    13    14   ar
     8    14    15   ar
     9    15    16   ar
    10    16    11    1
    11    11     1    1
    12     1     2   ar
    13     2     3   ar
    14     3     4   ar
    15     4     5   ar
    16     5     6   ar
    17     6     7   ar
    18     7     8   ar
    19     8     9   ar
    20     9    28    1
    21    28    29    1
    22    29    30    1
    23    29    31    1
    24    31    32    2
    25    31    33   am
    26    33    34    1
    27    33    35    1
    28     9    10   ar
    29    16    17   ar
    30    17    18   ar
    31    18    19    1
    32    25    26   ar
    33    26    27   ar
    34    27    22   ar
    35    18    13   ar
    36    10     1   ar
    37    10     5   ar
    38    11    12    1
@<TRIPOS>MOLECULE
*****
 35 38 0 0 0
SMALL
GASTEIGER

@<TRIPOS>ATOM
      1 C         142.6255  141.5021  168.0585 C.ar    1  UNL1        0.1383
      2 N         143.5402  142.4357  168.7944 N.ar    1  UNL1       -0.2088
      3 C         143.1380  142.9796  170.1331 C.ar    1  UNL1        0.2000
      4 N         141.8210  142.5897  170.7361 N.ar    1  UNL1       -0.2238
      5 C         140.9063  141.6561  170.0003 C.ar    1  UNL1        0.0887
      6 C         139.5893  141.2662  170.6033 C.ar    1  UNL1        0.0195
      7 C         138.6745  140.3326  169.8674 C.ar    1  UNL1        0.0047
      8 C         139.0768  139.7887  168.5286 C.ar    1  UNL1        0.0371
      9 C         140.3938  140.1785  167.9256 C.ar    1  UNL1        0.1432
     10 C         141.3085  141.1122  168.6615 C.ar    1  UNL1        0.0833
     11 N         143.0277  140.9582  166.7197 N.pl3   1  UNL1       -0.2978
     12 H         143.2787  140.0106  166.6285 H       1  UNL1        0.1536
     13 C         143.0874  143.6580  163.1200 C.ar    1  UNL1        0.1414
     14 C         142.0907  143.8917  164.2164 C.ar    1  UNL1        0.0384
     15 C         142.0708  142.9918  165.4163 C.ar    1  UNL1        0.0178
     16 C         143.0476  141.8581  165.5198 C.ar    1  UNL1        0.0492
     17 C         144.0443  141.6244  164.4234 C.ar    1  UNL1        0.0134
     18 C         144.0642  142.5243  163.2236 C.ar    1  UNL1        0.0139
     19 C         145.0609  142.2906  162.1272 C.3     1  UNL1        0.0343
     20 O         143.1073  144.5579  161.9202 O.3     1  UNL1       -0.4522
     21 C         139.2709  143.6207  157.4032 C.3     1  UNL1        0.0521
     22 C         140.2300  143.8550  158.5324 C.ar    1  UNL1        0.0596
     23 C         141.5831  143.2078  158.5137 C.ar    1  UNL1        0.0179
     24 C         142.5422  143.4421  159.6430 C.ar    1  UNL1        0.0403
     25 C         142.1482  144.3236  160.7909 C.ar    1  UNL1        0.1643
     26 C         140.7952  144.9708  160.8096 C.ar    1  UNL1        0.1358
     27 N         139.8360  144.7365  159.6803 N.ar    1  UNL1       -0.2449
     28 O         140.7960  139.6347  166.5868 O.3     1  UNL1       -0.4698
     29 C         139.7631  139.4335  165.5179 C.3     1  UNL1        0.2413
     30 C         138.9090  138.2004  165.5228 C.3     1  UNL1        0.0574
     31 C         139.5843  140.4654  164.4440 C.2     1  UNL1        0.2660
     32 O         138.5665  141.5544  164.6124 O.2     1  UNL1       -0.2710
     33 N         140.4232  140.4084  163.2019 N.am    1  UNL1       -0.2731
     34 C         140.2444  141.4403  162.1280 C.3     1  UNL1        0.1150
     35 C         141.4409  139.3194  163.0336 C.3     1  UNL1        0.1150
@<TRIPOS>BOND
     1    21    22    1
     2    22    23   ar
     3    23    24   ar
     4    24    25   ar
     5    25    20    1
     6    20    13    1
     7    13    14   ar
     8    14    15   ar
     9    15    16   ar
    10    16    11    1
    11    11     1    1
    12     1     2   ar
    13     2     3   ar
    14     3     4   ar
    15     4     5   ar
    16     5     6   ar
    17     6     7   ar
    18     7     8   ar
    19     8     9   ar
    20     9    28    1
    21    28    29    1
    22    29    30    1
    23    29    31    1
    24    31    32    2
    25    31    33   am
    26    33    34    1
    27    33    35    1
    28     9    10   ar
    29    16    17   ar
    30    17    18   ar
    31    18    19    1
    32    25    26   ar
    33    26    27   ar
    34    27    22   ar
    35    18    13   ar
    36    10     1   ar
    37    10     5   ar
    38    11    12    1
@<TRIPOS>MOLECULE
*****
 35 38 0 0 0
SMALL
GASTEIGER

@<TRIPOS>ATOM
      1 C         140.9455  141.0668  167.7768 C.ar    1  UNL1        0.1383
      2 N         140.8798  141.7517  169.1097 N.ar    1  UNL1       -0.2088
      3 C         139.7654  141.4338  170.0620 C.ar    1  UNL1        0.2000
      4 N         138.7168  140.4310  169.6816 N.ar    1  UNL1       -0.2238
      5 C         138.7825  139.7461  168.3487 C.ar    1  UNL1        0.0887
      6 C         137.7338  138.7434  167.9682 C.ar    1  UNL1        0.0195
      7 C         137.7995  138.0585  166.6354 C.ar    1  UNL1        0.0047
      8 C         138.9140  138.3763  165.6829 C.ar    1  UNL1        0.0371
      9 C         139.9626  139.3791  166.0634 C.ar    1  UNL1        0.1432
     10 C         139.8969  140.0640  167.3963 C.ar    1  UNL1        0.0833
     11 N         142.0600  141.3846  166.8244 N.pl3   1  UNL1       -0.2978
     12 H         142.9374  140.9511  166.9310 H       1  UNL1        0.1536
     13 C         141.3925  144.3199  163.4794 C.ar    1  UNL1        0.1414
     14 C         142.6687  143.5343  163.5444 C.ar    1  UNL1        0.0384
     15 C         142.8912  142.5559  164.6593 C.ar    1  UNL1        0.0178
     16 C         141.8375  142.3631  165.7094 C.ar    1  UNL1        0.0492
     17 C         140.5613  143.1486  165.6444 C.ar    1  UNL1        0.0134
     18 C         140.3388  144.1271  164.5295 C.ar    1  UNL1        0.0139
     19 C         139.0626  144.9126  164.4645 C.3     1  UNL1        0.0343
     20 O         141.1700  145.2984  162.3645 O.3     1  UNL1       -0.4522
     21 C         139.0685  143.3944  157.0769 C.3     1  UNL1        0.0521
     22 C         139.5939  143.8704  158.3988 C.ar    1  UNL1        0.0596
     23 C         140.6675  144.9168  158.4463 C.ar    1  UNL1        0.0179
     24 C         141.1929  145.3928  159.7682 C.ar    1  UNL1        0.0403
     25 C         140.6446  144.8224  161.0426 C.ar    1  UNL1        0.1643
     26 C         139.5709  143.7760  160.9951 C.ar    1  UNL1        0.1358
     27 N         139.0456  143.3000  159.6731 N.ar    1  UNL1       -0.2449
     28 O         141.0770  139.6969  165.1110 O.3     1  UNL1       -0.4698
     29 C         142.0581  138.6310  164.7220 C.3     1  UNL1        0.2413
     30 C         143.1106  138.1891  165.6951 C.3     1  UNL1        0.0574
     31 C         141.9867  138.0070  163.3598 C.2     1  UNL1        0.2660
     32 O         141.0332  136.8783  163.1010 O.2     1  UNL1       -0.2710
     33 N         142.8687  138.5116  162.2565 N.am    1  UNL1       -0.2731
     34 C         142.7972  137.8876  160.8943 C.3     1  UNL1        0.1150
     35 C         143.8221  139.6403  162.5153 C.3     1  UNL1        0.1150
@<TRIPOS>BOND
     1    21    22    1
     2    22    23   ar
     3    23    24   ar
     4    24    25   ar
     5    25    20    1
     6    20    13    1
     7    13    14   ar
     8    14    15   ar
     9    15    16   ar
    10    16    11    1
    11    11     1    1
    12     1     2   ar
    13     2     3   ar
    14     3     4   ar
    15     4     5   ar
    16     5     6   ar
    17     6     7   ar
    18     7     8   ar
    19     8     9   ar
    20     9    28    1
    21    28    29    1
    22    29    30    1
    23    29    31    1
    24    31    32    2
    25    31    33   am
    26    33    34    1
    27    33    35    1
    28     9    10   ar
    29    16    17   ar
    30    17    18   ar
    31    18    19    1
    32    25    26   ar
    33    26    27   ar
    34    27    22   ar
    35    18    13   ar
    36    10     1   ar
    37    10     5   ar
    38    11    12    1
@<TRIPOS>MOLECULE
*****
 35 38 0 0 0
SMALL
GASTEIGER

@<TRIPOS>ATOM
      1 C         142.5631  140.1022  167.9131 C.ar    1  UNL1        0.1383
      2 N         143.0902  138.8426  168.5338 N.ar    1  UNL1       -0.2088
      3 C         142.7484  138.5070  169.9553 C.ar    1  UNL1        0.2000
      4 N         141.8795  139.4311  170.7559 N.ar    1  UNL1       -0.2238
      5 C         141.3524  140.6908  170.1352 C.ar    1  UNL1        0.0887
      6 C         140.4835  141.6149  170.9358 C.ar    1  UNL1        0.0195
      7 C         139.9564  142.8745  170.3150 C.ar    1  UNL1        0.0047
      8 C         140.2982  143.2101  168.8935 C.ar    1  UNL1        0.0371
      9 C         141.1671  142.2860  168.0929 C.ar    1  UNL1        0.1432
     10 C         141.6942  141.0263  168.7137 C.ar    1  UNL1        0.0833
     11 N         142.9049  140.4378  166.4915 N.pl3   1  UNL1       -0.2978
     12 H         143.5878  141.1199  166.2973 H       1  UNL1        0.1536
     13 C         140.8088  138.3270  163.1150 C.ar    1  UNL1        0.1414
     14 C         142.0936  139.0580  162.8600 C.ar    1  UNL1        0.0384
     15 C         142.7923  139.7616  163.9855 C.ar    1  UNL1        0.0178
     16 C         142.2062  139.7342  165.3660 C.ar    1  UNL1        0.0492
     17 C         140.9214  139.0033  165.6210 C.ar    1  UNL1        0.0134
     18 C         140.2227  138.2997  164.4955 C.ar    1  UNL1        0.0139
     19 C         138.9379  137.5687  164.7505 C.3     1  UNL1        0.0343
     20 O         140.1101  137.6234  161.9895 O.3     1  UNL1       -0.4522
     21 C         137.7037  140.7964  157.5016 C.3     1  UNL1        0.0521
     22 C         138.3053  140.0031  158.6235 C.ar    1  UNL1        0.0596
     23 C         139.6727  139.4057  158.4707 C.ar    1  UNL1        0.0179
     24 C         140.2743  138.6124  159.5926 C.ar    1  UNL1        0.0403
     25 C         139.5085  138.4167  160.8675 C.ar    1  UNL1        0.1643
     26 C         138.1411  139.0141  161.0204 C.ar    1  UNL1        0.1358
     27 N         137.5396  139.8074  159.8984 N.ar    1  UNL1       -0.2449
     28 O         141.5089  142.6216  166.6714 O.3     1  UNL1       -0.4698
     29 C         140.4149  142.8663  165.6747 C.3     1  UNL1        0.2413
     30 C         139.2780  141.8952  165.5553 C.3     1  UNL1        0.0574
     31 C         140.4580  144.0822  164.7973 C.2     1  UNL1        0.2660
     32 O         139.3049  145.0416  164.7881 O.2     1  UNL1       -0.2710
     33 N         141.6540  144.3386  163.9291 N.am    1  UNL1       -0.2731
     34 C         141.6970  145.5545  163.0518 C.3     1  UNL1        0.1150
     35 C         142.8069  143.3792  163.9383 C.3     1  UNL1        0.1150
@<TRIPOS>BOND
     1    21    22    1
     2    22    23   ar
     3    23    24   ar
     4    24    25   ar
     5    25    20    1
     6    20    13    1
     7    13    14   ar
     8    14    15   ar
     9    15    16   ar
    10    16    11    1
    11    11     1    1
    12     1     2   ar
    13     2     3   ar
    14     3     4   ar
    15     4     5   ar
    16     5     6   ar
    17     6     7   ar
    18     7     8   ar
    19     8     9   ar
    20     9    28    1
    21    28    29    1
    22    29    30    1
    23    29    31    1
    24    31    32    2
    25    31    33   am
    26    33    34    1
    27    33    35    1
    28     9    10   ar
    29    16    17   ar
    30    17    18   ar
    31    18    19    1
    32    25    26   ar
    33    26    27   ar
    34    27    22   ar
    35    18    13   ar
    36    10     1   ar
    37    10     5   ar
    38    11    12    1
@<TRIPOS>MOLECULE
*****
 35 38 0 0 0
SMALL
GASTEIGER

@<TRIPOS>ATOM
      1 C         139.1485  141.7938  160.5685 C.ar    1  UNL1        0.1383
      2 N         139.7657  142.6332  159.4894 N.ar    1  UNL1       -0.2088
      3 C         139.9692  144.1033  159.7069 C.ar    1  UNL1        0.2000
      4 N         139.5556  144.7340  161.0035 N.ar    1  UNL1       -0.2238
      5 C         138.9385  143.8946  162.0826 C.ar    1  UNL1        0.0887
      6 C         138.5248  144.5252  163.3792 C.ar    1  UNL1        0.0195
      7 C         137.9077  143.6858  164.4583 C.ar    1  UNL1        0.0047
      8 C         137.7041  142.2156  164.2408 C.ar    1  UNL1        0.0371
      9 C         138.1177  141.5850  162.9442 C.ar    1  UNL1        0.1432
     10 C         138.7349  142.4245  161.8651 C.ar    1  UNL1        0.0833
     11 N         138.9450  140.3236  160.3510 N.pl3   1  UNL1       -0.2978
     12 H         138.1246  139.8869  160.6758 H       1  UNL1        0.1536
     13 C         142.0840  137.9096  158.2135 C.ar    1  UNL1        0.1414
     14 C         140.9035  138.4427  157.4568 C.ar    1  UNL1        0.0384
     15 C         139.8572  139.2474  158.1693 C.ar    1  UNL1        0.0178
     16 C         139.9913  139.5190  159.6385 C.ar    1  UNL1        0.0492
     17 C         141.1717  138.9859  160.3950 C.ar    1  UNL1        0.0134
     18 C         142.2180  138.1812  159.6825 C.ar    1  UNL1        0.0139
     19 C         143.3985  137.6481  160.4392 C.3     1  UNL1        0.0343
     20 O         143.1303  137.1049  157.5010 O.3     1  UNL1       -0.4522
     21 C         141.8145  131.6253  155.4414 C.3     1  UNL1        0.0521
     22 C         142.1434  132.9952  155.9562 C.ar    1  UNL1        0.0596
     23 C         141.6493  134.2092  155.2269 C.ar    1  UNL1        0.0179
     24 C         141.9782  135.5791  155.7418 C.ar    1  UNL1        0.0403
     25 C         142.8014  135.7350  156.9861 C.ar    1  UNL1        0.1643
     26 C         143.2955  134.5210  157.7154 C.ar    1  UNL1        0.1358
     27 N         142.9666  133.1510  157.2005 N.ar    1  UNL1       -0.2449
     28 O         137.9142  140.1149  162.7266 O.3     1  UNL1       -0.4698
     29 C         138.8369  139.1259  163.3751 C.3     1  UNL1        0.2413
     30 C         138.7880  137.6809  162.9759 C.3     1  UNL1        0.0574
     31 C         139.8086  139.5820  164.4229 C.2     1  UNL1        0.2660
     32 O         141.1553  140.1055  164.0198 O.2     1  UNL1       -0.2710
     33 N         139.4336  139.5146  165.8737 N.am    1  UNL1       -0.2731
     34 C         140.4053  139.9707  166.9215 C.3     1  UNL1        0.1150
     35 C         138.0870  138.9911  166.2767 C.3     1  UNL1        0.1150
@<TRIPOS>BOND
     1    21    22    1
     2    22    23   ar
     3    23    24   ar
     4    24    25   ar
     5    25    20    1
     6    20    13    1
     7    13    14   ar
     8    14    15   ar
     9    15    16   ar
    10    16    11    1
    11    11     1    1
    12     1     2   ar
    13     2     3   ar
    14     3     4   ar
    15     4     5   ar
    16     5     6   ar
    17     6     7   ar
    18     7     8   ar
    19     8     9   ar
    20     9    28    1
    21    28    29    1
    22    29    30    1
    23    29    31    1
    24    31    32    2
    25    31    33   am
    26    33    34    1
    27    33    35    1
    28     9    10   ar
    29    16    17   ar
    30    17    18   ar
    31    18    19    1
    32    25    26   ar
    33    26    27   ar
    34    27    22   ar
    35    18    13   ar
    36    10     1   ar
    37    10     5   ar
    38    11    12    1
@<TRIPOS>MOLECULE
*****
 35 38 0 0 0
SMALL
GASTEIGER

@<TRIPOS>ATOM
      1 C         139.3370  141.2020  160.7461 C.ar    1  UNL1        0.1383
      2 N         139.8200  142.0012  159.5723 N.ar    1  UNL1       -0.2088
      3 C         139.8025  143.5001  159.6272 C.ar    1  UNL1        0.2000
      4 N         139.3019  144.1997  160.8560 N.ar    1  UNL1       -0.2238
      5 C         138.8189  143.4005  162.0299 C.ar    1  UNL1        0.0887
      6 C         138.3183  144.1002  163.2586 C.ar    1  UNL1        0.0195
      7 C         137.8353  143.3010  164.4325 C.ar    1  UNL1        0.0047
      8 C         137.8528  141.8021  164.3775 C.ar    1  UNL1        0.0371
      9 C         138.3533  141.1024  163.1488 C.ar    1  UNL1        0.1432
     10 C         138.8364  141.9017  161.9749 C.ar    1  UNL1        0.0833
     11 N         139.3545  139.7031  160.6912 N.pl3   1  UNL1       -0.2978
     12 H         138.8475  139.1803  161.3537 H       1  UNL1        0.1536
     13 C         141.7243  137.5961  157.4983 C.ar    1  UNL1        0.1414
     14 C         142.3706  137.9412  158.8073 C.ar    1  UNL1        0.0384
     15 C         141.5806  138.6436  159.8716 C.ar    1  UNL1        0.0178
     16 C         140.1444  139.0008  159.6269 C.ar    1  UNL1        0.0492
     17 C         139.4982  138.6556  158.3180 C.ar    1  UNL1        0.0134
     18 C         140.2882  137.9533  157.2537 C.ar    1  UNL1        0.0139
     19 C         139.6419  137.6082  155.9447 C.3     1  UNL1        0.0343
     20 O         142.5142  136.8938  156.4340 O.3     1  UNL1       -0.4522
     21 C         142.5595  130.8988  156.1954 C.3     1  UNL1        0.0521
     22 C         142.5482  132.3975  156.2550 C.ar    1  UNL1        0.0596
     23 C         141.6823  133.1791  155.3120 C.ar    1  UNL1        0.0179
     24 C         141.6710  134.6779  155.3716 C.ar    1  UNL1        0.0403
     25 C         142.5256  135.3951  156.3744 C.ar    1  UNL1        0.1643
     26 C         143.3914  134.6134  157.3174 C.ar    1  UNL1        0.1358
     27 N         143.4027  133.1146  157.2577 N.ar    1  UNL1       -0.2449
     28 O         138.3709  139.6036  163.0938 O.3     1  UNL1       -0.4698
     29 C         139.2324  138.8281  164.0460 C.3     1  UNL1        0.2413
     30 C         138.7359  138.5226  165.4280 C.3     1  UNL1        0.0574
     31 C         140.5905  138.3582  163.6160 C.2     1  UNL1        0.2660
     32 O         140.7451  137.0262  162.9437 O.2     1  UNL1       -0.2710
     33 N         141.7938  139.2202  163.8583 N.am    1  UNL1       -0.2731
     34 C         143.1519  138.7504  163.4283 C.3     1  UNL1        0.1150
     35 C         141.6392  140.5522  164.5306 C.3     1  UNL1        0.1150
@<TRIPOS>BOND
     1    21    22    1
     2    22    23   ar
     3    23    24   ar
     4    24    25   ar
     5    25    20    1
     6    20    13    1
     7    13    14   ar
     8    14    15   ar
     9    15    16   ar
    10    16    11    1
    11    11     1    1
    12     1     2   ar
    13     2     3   ar
    14     3     4   ar
    15     4     5   ar
    16     5     6   ar
    17     6     7   ar
    18     7     8   ar
    19     8     9   ar
    20     9    28    1
    21    28    29    1
    22    29    30    1
    23    29    31    1
    24    31    32    2
    25    31    33   am
    26    33    34    1
    27    33    35    1
    28     9    10   ar
    29    16    17   ar
    30    17    18   ar
    31    18    19    1
    32    25    26   ar
    33    26    27   ar
    34    27    22   ar
    35    18    13   ar
    36    10     1   ar
    37    10     5   ar
    38    11    12    1
@<TRIPOS>MOLECULE
*****
 35 38 0 0 0
SMALL
GASTEIGER

@<TRIPOS>ATOM
      1 C         143.6950  143.2424  158.5559 C.ar    1  UNL1        0.1383
      2 N         144.6498  142.5045  157.6648 N.ar    1  UNL1       -0.2088
      3 C         144.4306  142.4882  156.1811 C.ar    1  UNL1        0.2000
      4 N         143.2567  143.2097  155.5883 N.ar    1  UNL1       -0.2238
      5 C         142.3020  143.9476  156.4793 C.ar    1  UNL1        0.0887
      6 C         141.1281  144.6691  155.8866 C.ar    1  UNL1        0.0195
      7 C         140.1733  145.4069  156.7776 C.ar    1  UNL1        0.0047
      8 C         140.3924  145.4233  158.2615 C.ar    1  UNL1        0.0371
      9 C         141.5663  144.7018  158.8543 C.ar    1  UNL1        0.1432
     10 C         142.5211  143.9639  157.9631 C.ar    1  UNL1        0.0833
     11 N         143.9142  143.2587  160.0397 N.pl3   1  UNL1       -0.2978
     12 H         144.2877  144.0597  160.4734 H       1  UNL1        0.1536
     13 C         142.8641  139.6462  162.5090 C.ar    1  UNL1        0.1414
     14 C         142.0640  139.9755  161.2837 C.ar    1  UNL1        0.0384
     15 C         142.4140  141.1796  160.4606 C.ar    1  UNL1        0.0178
     16 C         143.5641  142.0545  160.8628 C.ar    1  UNL1        0.0492
     17 C         144.3642  141.7253  162.0882 C.ar    1  UNL1        0.0134
     18 C         144.0142  140.5211  162.9113 C.ar    1  UNL1        0.0139
     19 C         144.8143  140.1919  164.1366 C.3     1  UNL1        0.0343
     20 O         142.5141  138.4421  163.3321 O.3     1  UNL1       -0.4522
     21 C         137.7052  138.5542  166.9184 C.3     1  UNL1        0.0521
     22 C         138.9074  138.5261  166.0218 C.ar    1  UNL1        0.0596
     23 C         138.9399  137.6037  164.8395 C.ar    1  UNL1        0.0179
     24 C         140.1421  137.5756  163.9429 C.ar    1  UNL1        0.0403
     25 C         141.3119  138.4701  164.2287 C.ar    1  UNL1        0.1643
     26 C         141.2794  139.3926  165.4111 C.ar    1  UNL1        0.1358
     27 N         140.0771  139.4206  166.3077 N.ar    1  UNL1       -0.2449
     28 O         141.7855  144.7181  160.3380 O.3     1  UNL1       -0.4698
     29 C         140.6116  144.7943  161.2688 C.3     1  UNL1        0.2413
     30 C         140.2856  146.0847  161.9606 C.3     1  UNL1        0.0574
     31 C         139.7638  143.5802  161.5077 C.2     1  UNL1        0.2660
     32 O         138.6396  143.2541  160.5697 O.2     1  UNL1       -0.2710
     33 N         140.0402  142.6922  162.6845 N.am    1  UNL1       -0.2731
     34 C         139.1924  141.4780  162.9234 C.3     1  UNL1        0.1150
     35 C         141.1644  143.0183  163.6225 C.3     1  UNL1        0.1150
@<TRIPOS>BOND
     1    21    22    1
     2    22    23   ar
     3    23    24   ar
     4    24    25   ar
     5    25    20    1
     6    20    13    1
     7    13    14   ar
     8    14    15   ar
     9    15    16   ar
    10    16    11    1
    11    11     1    1
    12     1     2   ar
    13     2     3   ar
    14     3     4   ar
    15     4     5   ar
    16     5     6   ar
    17     6     7   ar
    18     7     8   ar
    19     8     9   ar
    20     9    28    1
    21    28    29    1
    22    29    30    1
    23    29    31    1
    24    31    32    2
    25    31    33   am
    26    33    34    1
    27    33    35    1
    28     9    10   ar
    29    16    17   ar
    30    17    18   ar
    31    18    19    1
    32    25    26   ar
    33    26    27   ar
    34    27    22   ar
    35    18    13   ar
    36    10     1   ar
    37    10     5   ar
    38    11    12    1
@<TRIPOS>MOLECULE
*****
 35 38 0 0 0
SMALL
GASTEIGER

@<TRIPOS>ATOM
      1 C         139.9939  140.6826  162.5875 C.ar    1  UNL1        0.1383
      2 N         138.8310  139.9235  162.0207 N.ar    1  UNL1       -0.2088
      3 C         137.4451  140.4880  162.1237 C.ar    1  UNL1        0.2000
      4 N         137.2221  141.8114  162.7935 N.ar    1  UNL1       -0.2238
      5 C         138.3851  142.5705  163.3603 C.ar    1  UNL1        0.0887
      6 C         138.1621  143.8940  164.0302 C.ar    1  UNL1        0.0195
      7 C         139.3250  144.6531  164.5970 C.ar    1  UNL1        0.0047
      8 C         140.7110  144.0887  164.4940 C.ar    1  UNL1        0.0371
      9 C         140.9340  142.7652  163.8242 C.ar    1  UNL1        0.1432
     10 C         139.7710  142.0061  163.2573 C.ar    1  UNL1        0.0833
     11 N         141.3799  140.1182  162.4845 N.pl3   1  UNL1       -0.2978
     12 H         141.9661  140.1051  163.2754 H       1  UNL1        0.1536
     13 C         142.8584  138.4851  158.5606 C.ar    1  UNL1        0.1414
     14 C         142.9697  137.6579  159.8070 C.ar    1  UNL1        0.0384
     15 C         142.4769  138.2022  161.1149 C.ar    1  UNL1        0.0178
     16 C         141.8728  139.5739  161.1766 C.ar    1  UNL1        0.0492
     17 C         141.7615  140.4010  159.9302 C.ar    1  UNL1        0.0134
     18 C         142.2543  139.8566  158.6223 C.ar    1  UNL1        0.0139
     19 C         142.1430  140.6839  157.3759 C.3     1  UNL1        0.0343
     20 O         143.3512  137.9407  157.2526 O.3     1  UNL1       -0.4522
     21 C         141.1680  132.7653  155.1435 C.3     1  UNL1        0.0521
     22 C         141.7138  134.0592  155.6708 C.ar    1  UNL1        0.0596
     23 C         141.0870  135.3594  155.2627 C.ar    1  UNL1        0.0179
     24 C         141.6328  136.6532  155.7900 C.ar    1  UNL1        0.0403
     25 C         142.8055  136.6469  156.7254 C.ar    1  UNL1        0.1643
     26 C         143.4322  135.3467  157.1335 C.ar    1  UNL1        0.1358
     27 N         142.8864  134.0528  156.6062 N.ar    1  UNL1       -0.2449
     28 O         142.3199  142.2008  163.7212 O.3     1  UNL1       -0.4698
     29 C         143.1482  142.0157  164.9580 C.3     1  UNL1        0.2413
     30 C         144.1193  143.0795  165.3765 C.3     1  UNL1        0.0574
     31 C         143.0053  140.7667  165.7763 C.2     1  UNL1        0.2660
     32 O         142.1130  140.7580  166.9821 O.2     1  UNL1       -0.2710
     33 N         143.7547  139.5264  165.3890 N.am    1  UNL1       -0.2731
     34 C         143.6118  138.2774  166.2073 C.3     1  UNL1        0.1150
     35 C         144.6470  139.5351  164.1833 C.3     1  UNL1        0.1150
@<TRIPOS>BOND
     1    21    22    1
     2    22    23   ar
     3    23    24   ar
     4    24    25   ar
     5    25    20    1
     6    20    13    1
     7    13    14   ar
     8    14    15   ar
     9    15    16   ar
    10    16    11    1
    11    11     1    1
    12     1     2   ar
    13     2     3   ar
    14     3     4   ar
    15     4     5   ar
    16     5     6   ar
    17     6     7   ar
    18     7     8   ar
    19     8     9   ar
    20     9    28    1
    21    28    29    1
    22    29    30    1
    23    29    31    1
    24    31    32    2
    25    31    33   am
    26    33    34    1
    27    33    35    1
    28     9    10   ar
    29    16    17   ar
    30    17    18   ar
    31    18    19    1
    32    25    26   ar
    33    26    27   ar
    34    27    22   ar
    35    18    13   ar
    36    10     1   ar
    37    10     5   ar
    38    11    12    1
@<TRIPOS>MOLECULE
*****
 35 38 0 0 0
SMALL
GASTEIGER

@<TRIPOS>ATOM
      1 C         142.7905  143.9370  163.0889 C.ar    1  UNL1        0.1383
      2 N         144.1880  143.6919  162.6023 N.ar    1  UNL1       -0.2088
      3 C         145.1377  142.8764  163.4287 C.ar    1  UNL1        0.2000
      4 N         144.6898  142.3060  164.7417 N.ar    1  UNL1       -0.2238
      5 C         143.2923  142.5511  165.2283 C.ar    1  UNL1        0.0887
      6 C         142.8445  141.9806  166.5414 C.ar    1  UNL1        0.0195
      7 C         141.4470  142.2257  167.0280 C.ar    1  UNL1        0.0047
      8 C         140.4972  143.0412  166.2016 C.ar    1  UNL1        0.0371
      9 C         140.9450  143.6117  164.8885 C.ar    1  UNL1        0.1432
     10 C         142.3426  143.3666  164.4019 C.ar    1  UNL1        0.0833
     11 N         141.8407  144.7525  162.2625 N.pl3   1  UNL1       -0.2978
     12 H         141.4778  145.5958  162.6181 H       1  UNL1        0.1536
     13 C         140.6501  143.3446  158.1575 C.ar    1  UNL1        0.1414
     14 C         141.0294  142.3472  159.2118 C.ar    1  UNL1        0.0384
     15 C         141.4263  142.8165  160.5801 C.ar    1  UNL1        0.0178
     16 C         141.4438  144.2832  160.8942 C.ar    1  UNL1        0.0492
     17 C         141.0645  145.2805  159.8399 C.ar    1  UNL1        0.0134
     18 C         140.6676  144.8112  158.4716 C.ar    1  UNL1        0.0139
     19 C         140.2883  145.8086  157.4174 C.3     1  UNL1        0.0343
     20 O         140.2532  142.8753  156.7892 O.3     1  UNL1       -0.4522
     21 C         134.7084  140.7974  155.8213 C.3     1  UNL1        0.0521
     22 C         136.0946  141.3169  156.0633 C.ar    1  UNL1        0.0596
     23 C         136.4478  142.7216  155.6735 C.ar    1  UNL1        0.0179
     24 C         137.8340  143.2411  155.9155 C.ar    1  UNL1        0.0403
     25 C         138.8671  142.3558  156.5473 C.ar    1  UNL1        0.1643
     26 C         138.5139  140.9511  156.9371 C.ar    1  UNL1        0.1358
     27 N         137.1276  140.4316  156.6951 N.ar    1  UNL1       -0.2449
     28 O         139.9953  144.4272  164.0621 O.3     1  UNL1       -0.4698
     29 C         138.5786  143.9700  163.8777 C.3     1  UNL1        0.2413
     30 C         137.5151  144.4183  164.8357 C.3     1  UNL1        0.0574
     31 C         138.2255  143.0644  162.7352 C.2     1  UNL1        0.2660
     32 O         138.0528  143.6292  161.3563 O.2     1  UNL1       -0.2710
     33 N         138.0452  141.5942  162.9715 N.am    1  UNL1       -0.2731
     34 C         137.6921  140.6887  161.8290 C.3     1  UNL1        0.1150
     35 C         138.2179  141.0295  164.3503 C.3     1  UNL1        0.1150
@<TRIPOS>BOND
     1    21    22    1
     2    22    23   ar
     3    23    24   ar
     4    24    25   ar
     5    25    20    1
     6    20    13    1
     7    13    14   ar
     8    14    15   ar
     9    15    16   ar
    10    16    11    1
    11    11     1    1
    12     1     2   ar
    13     2     3   ar
    14     3     4   ar
    15     4     5   ar
    16     5     6   ar
    17     6     7   ar
    18     7     8   ar
    19     8     9   ar
    20     9    28    1
    21    28    29    1
    22    29    30    1
    23    29    31    1
    24    31    32    2
    25    31    33   am
    26    33    34    1
    27    33    35    1
    28     9    10   ar
    29    16    17   ar
    30    17    18   ar
    31    18    19    1
    32    25    26   ar
    33    26    27   ar
    34    27    22   ar
    35    18    13   ar
    36    10     1   ar
    37    10     5   ar
    38    11    12    1
