@<TRIPOS>MOLECULE
*****
 18 18 0 0 0
SMALL
GASTEIGER

@<TRIPOS>ATOM
      1 C         139.4949  140.4159  169.1690 C.2     1  UNL1       -0.0130
      2 C         139.6089  139.6427  167.8887 C.2     1  UNL1       -0.0246
      3 C         140.7278  140.7514  169.9549 C.3     1  UNL1        0.0986
      4 N         141.6978  141.7683  169.4305 N.3     1  UNL1       -0.2690
      5 C         141.7054  143.1582  169.9945 C.3     1  UNL1        0.0724
      6 C         140.4729  144.0089  169.9094 C.3     1  UNL1        0.0188
      7 C         142.6602  141.3953  168.3421 C.3     1  UNL1        0.0724
      8 C         142.7032  142.1937  167.0729 C.3     1  UNL1        0.0173
      9 C         140.3231  142.8974  166.3048 C.3     1  UNL1        0.0000
     10 C         141.5748  142.0995  166.0891 C.3     1  UNL1        0.0014
     11 C         138.3761  139.3072  167.1028 C.3     1  UNL1        0.0520
     12 C         138.4668  139.0912  165.6212 C.ar    1  UNL1       -0.0178
     13 C         138.8803  137.7539  165.0822 C.ar    1  UNL1       -0.0031
     14 C         138.9710  137.5378  163.6006 C.ar    1  UNL1        0.0111
     15 C         138.6482  138.6591  162.6581 C.ar    1  UNL1        0.0577
     16 CL        138.7389  138.4431  161.1765 Cl      1  UNL1       -0.0822
     17 C         138.2347  139.9964  163.1971 C.ar    1  UNL1        0.0111
     18 C         138.1440  140.2124  164.6787 C.ar    1  UNL1       -0.0031
@<TRIPOS>BOND
     1     9    10    1
     2    10     8    1
     3     8     7    1
     4     7     4    1
     5     4     5    1
     6     5     6    1
     7     4     3    1
     8     3     1    1
     9     1     2    2
    10     2    11    1
    11    11    12    1
    12    12    13   ar
    13    13    14   ar
    14    14    15   ar
    15    15    16    1
    16    15    17   ar
    17    17    18   ar
    18    18    12   ar
@<TRIPOS>MOLECULE
*****
 18 18 0 0 0
SMALL
GASTEIGER

@<TRIPOS>ATOM
      1 C         141.7612  138.3722  163.9382 C.2     1  UNL1       -0.0130
      2 C         142.3456  137.9111  165.2405 C.2     1  UNL1       -0.0246
      3 C         140.7010  137.5554  163.2609 C.3     1  UNL1        0.0986
      4 N         139.2589  137.7463  163.6271 N.3     1  UNL1       -0.2690
      5 C         138.2803  138.2251  162.5961 C.3     1  UNL1        0.0724
      6 C         138.1297  139.6936  162.3298 C.3     1  UNL1        0.0188
      7 C         138.7956  137.4583  165.0244 C.3     1  UNL1        0.0724
      8 C         138.2822  138.5716  165.8887 C.3     1  UNL1        0.0173
      9 C         139.4838  140.8744  165.9435 C.3     1  UNL1        0.0000
     10 C         139.2444  139.5195  166.5409 C.3     1  UNL1        0.0014
     11 C         143.4058  138.7278  165.9179 C.3     1  UNL1        0.0520
     12 C         143.0173  139.8196  166.8703 C.ar    1  UNL1       -0.0178
     13 C         143.0806  141.2533  166.4339 C.ar    1  UNL1       -0.0031
     14 C         142.6922  142.3450  167.3864 C.ar    1  UNL1        0.0111
     15 C         142.2405  142.0031  168.7752 C.ar    1  UNL1        0.0577
     16 CL        141.8521  143.0949  169.7277 Cl      1  UNL1       -0.0822
     17 C         142.1772  140.5694  169.2116 C.ar    1  UNL1        0.0111
     18 C         142.5656  139.4777  168.2592 C.ar    1  UNL1       -0.0031
@<TRIPOS>BOND
     1     9    10    1
     2    10     8    1
     3     8     7    1
     4     7     4    1
     5     4     5    1
     6     5     6    1
     7     4     3    1
     8     3     1    1
     9     1     2    2
    10     2    11    1
    11    11    12    1
    12    12    13   ar
    13    13    14   ar
    14    14    15   ar
    15    15    16    1
    16    15    17   ar
    17    17    18   ar
    18    18    12   ar
@<TRIPOS>MOLECULE
*****
 18 18 0 0 0
SMALL
GASTEIGER

@<TRIPOS>ATOM
      1 C         138.6744  141.1319  163.1268 C.2     1  UNL1       -0.0130
      2 C         137.9860  140.6606  164.3734 C.2     1  UNL1       -0.0246
      3 C         138.1644  142.3409  162.3999 C.3     1  UNL1        0.0986
      4 N         138.6274  143.7094  162.8034 N.3     1  UNL1       -0.2690
      5 C         139.6415  144.4344  161.9691 C.3     1  UNL1        0.0724
      6 C         139.6666  145.9341  161.9544 C.3     1  UNL1        0.0188
      7 C         138.0763  144.3530  164.0412 C.3     1  UNL1        0.0724
      8 C         138.9700  144.5973  165.2209 C.3     1  UNL1        0.0173
      9 C         141.0900  143.0994  165.3300 C.3     1  UNL1        0.0000
     10 C         139.7251  143.4579  165.8385 C.3     1  UNL1        0.0014
     11 C         138.4959  139.4517  165.1003 C.3     1  UNL1        0.0520
     12 C         139.5705  139.5975  166.1367 C.ar    1  UNL1       -0.0178
     13 C         141.0069  139.3800  165.7634 C.ar    1  UNL1       -0.0031
     14 C         142.0815  139.5259  166.7998 C.ar    1  UNL1        0.0111
     15 C         141.7196  139.8892  168.2094 C.ar    1  UNL1        0.0577
     16 CL        142.7942  140.0350  169.2458 Cl      1  UNL1       -0.0822
     17 C         140.2832  140.1066  168.5826 C.ar    1  UNL1        0.0111
     18 C         139.2086  139.9608  167.5463 C.ar    1  UNL1       -0.0031
@<TRIPOS>BOND
     1     9    10    1
     2    10     8    1
     3     8     7    1
     4     7     4    1
     5     4     5    1
     6     5     6    1
     7     4     3    1
     8     3     1    1
     9     1     2    2
    10     2    11    1
    11    11    12    1
    12    12    13   ar
    13    13    14   ar
    14    14    15   ar
    15    15    16    1
    16    15    17   ar
    17    17    18   ar
    18    18    12   ar
@<TRIPOS>MOLECULE
*****
 18 18 0 0 0
SMALL
GASTEIGER

@<TRIPOS>ATOM
      1 C         139.3917  140.0481  167.7081 C.2     1  UNL1       -0.0130
      2 C         138.3090  139.1355  167.2134 C.2     1  UNL1       -0.0246
      3 C         139.5120  140.3435  169.1739 C.3     1  UNL1        0.0986
      4 N         140.6413  141.1927  169.6776 N.3     1  UNL1       -0.2690
      5 C         140.3516  142.4301  170.4743 C.3     1  UNL1        0.0724
      6 C         140.4596  143.7800  169.8291 C.3     1  UNL1        0.0188
      7 C         142.0602  140.8044  169.3845 C.3     1  UNL1        0.0724
      8 C         142.7523  141.3518  168.1715 C.3     1  UNL1        0.0173
      9 C         142.8546  139.0724  166.9289 C.3     1  UNL1        0.0000
     10 C         142.7549  140.5687  166.8922 C.3     1  UNL1        0.0014
     11 C         138.1887  138.8400  165.7478 C.3     1  UNL1        0.0520
     12 C         139.4233  138.6586  164.9154 C.ar    1  UNL1       -0.0178
     13 C         140.0756  137.3109  164.8252 C.ar    1  UNL1       -0.0031
     14 C         141.3102  137.1294  163.9928 C.ar    1  UNL1        0.0111
     15 C         141.8925  138.2957  163.2507 C.ar    1  UNL1        0.0577
     16 CL        143.1271  138.1142  162.4183 Cl      1  UNL1       -0.0822
     17 C         141.2402  139.6433  163.3409 C.ar    1  UNL1        0.0111
     18 C         140.0056  139.8248  164.1733 C.ar    1  UNL1       -0.0031
@<TRIPOS>BOND
     1     9    10    1
     2    10     8    1
     3     8     7    1
     4     7     4    1
     5     4     5    1
     6     5     6    1
     7     4     3    1
     8     3     1    1
     9     1     2    2
    10     2    11    1
    11    11    12    1
    12    12    13   ar
    13    13    14   ar
    14    14    15   ar
    15    15    16    1
    16    15    17   ar
    17    17    18   ar
    18    18    12   ar
@<TRIPOS>MOLECULE
*****
 18 18 0 0 0
SMALL
GASTEIGER

@<TRIPOS>ATOM
      1 C         141.7912  138.1287  163.9300 C.2     1  UNL1       -0.0130
      2 C         142.4337  138.0951  165.2851 C.2     1  UNL1       -0.0246
      3 C         140.5299  137.3568  163.6787 C.3     1  UNL1        0.0986
      4 N         139.2017  137.9508  164.0436 N.3     1  UNL1       -0.2690
      5 C         138.4786  138.8287  163.0657 C.3     1  UNL1        0.0724
      6 C         137.9399  138.2476  161.7921 C.3     1  UNL1        0.0188
      7 C         138.5967  137.6670  165.3866 C.3     1  UNL1        0.0724
      8 C         138.3208  138.7933  166.3380 C.3     1  UNL1        0.0173
      9 C         139.8461  140.0818  168.0003 C.3     1  UNL1        0.0000
     10 C         139.3735  139.8293  166.5993 C.3     1  UNL1        0.0014
     11 C         143.6950  138.8670  165.5364 C.3     1  UNL1        0.0520
     12 C         143.7541  140.3316  165.2179 C.ar    1  UNL1       -0.0178
     13 C         142.7309  141.2659  165.7923 C.ar    1  UNL1       -0.0031
     14 C         142.7900  142.7305  165.4738 C.ar    1  UNL1        0.0111
     15 C         143.8724  143.2608  164.5809 C.ar    1  UNL1        0.0577
     16 CL        143.9315  144.7254  164.2624 Cl      1  UNL1       -0.0822
     17 C         144.8956  142.3264  164.0065 C.ar    1  UNL1        0.0111
     18 C         144.8365  140.8618  164.3251 C.ar    1  UNL1       -0.0031
@<TRIPOS>BOND
     1     9    10    1
     2    10     8    1
     3     8     7    1
     4     7     4    1
     5     4     5    1
     6     5     6    1
     7     4     3    1
     8     3     1    1
     9     1     2    2
    10     2    11    1
    11    11    12    1
    12    12    13   ar
    13    13    14   ar
    14    14    15   ar
    15    15    16    1
    16    15    17   ar
    17    17    18   ar
    18    18    12   ar
@<TRIPOS>MOLECULE
*****
 18 18 0 0 0
SMALL
GASTEIGER

@<TRIPOS>ATOM
      1 C         139.7381  139.7481  167.3222 C.2     1  UNL1       -0.0130
      2 C         138.3823  139.1970  166.9936 C.2     1  UNL1       -0.0246
      3 C         139.8731  140.8670  168.3122 C.3     1  UNL1        0.0986
      4 N         140.7655  142.0337  168.0082 N.3     1  UNL1       -0.2690
      5 C         141.3237  142.8624  169.1269 C.3     1  UNL1        0.0724
      6 C         140.4459  143.8467  169.8415 C.3     1  UNL1        0.0188
      7 C         141.0996  142.3717  166.5855 C.3     1  UNL1        0.0724
      8 C         140.0924  143.0759  165.7255 C.3     1  UNL1        0.0173
      9 C         137.9439  142.1491  164.5965 C.3     1  UNL1        0.0000
     10 C         139.4309  142.3459  164.5944 C.3     1  UNL1        0.0014
     11 C         138.2473  138.0781  166.0037 C.3     1  UNL1        0.0520
     12 C         139.0988  138.0623  164.7689 C.ar    1  UNL1       -0.0178
     13 C         138.6465  138.7881  163.5366 C.ar    1  UNL1       -0.0031
     14 C         139.4981  138.7723  162.3019 C.ar    1  UNL1        0.0111
     15 C         140.8019  138.0307  162.2994 C.ar    1  UNL1        0.0577
     16 CL        141.6535  138.0149  161.0647 Cl      1  UNL1       -0.0822
     17 C         141.2542  137.3049  163.5317 C.ar    1  UNL1        0.0111
     18 C         140.4026  137.3207  164.7665 C.ar    1  UNL1       -0.0031
@<TRIPOS>BOND
     1     9    10    1
     2    10     8    1
     3     8     7    1
     4     7     4    1
     5     4     5    1
     6     5     6    1
     7     4     3    1
     8     3     1    1
     9     1     2    2
    10     2    11    1
    11    11    12    1
    12    12    13   ar
    13    13    14   ar
    14    14    15   ar
    15    15    16    1
    16    15    17   ar
    17    17    18   ar
    18    18    12   ar
@<TRIPOS>MOLECULE
*****
 18 18 0 0 0
SMALL
GASTEIGER

@<TRIPOS>ATOM
      1 C         141.1304  139.8002  167.2506 C.2     1  UNL1       -0.0130
      2 C         139.8292  139.8399  167.9959 C.2     1  UNL1       -0.0246
      3 C         142.3939  140.2490  167.9231 C.3     1  UNL1        0.0986
      4 N         142.8309  141.6802  167.8200 N.3     1  UNL1       -0.2690
      5 C         142.7662  142.3909  166.5006 C.3     1  UNL1        0.0724
      6 C         143.7376  142.0417  165.4123 C.3     1  UNL1        0.0188
      7 C         143.3325  142.4007  169.0363 C.3     1  UNL1        0.0724
      8 C         142.3592  142.9649  170.0284 C.3     1  UNL1        0.0173
      9 C         139.8078  142.6822  170.4290 C.3     1  UNL1        0.0000
     10 C         140.9420  143.2355  169.6182 C.3     1  UNL1        0.0014
     11 C         138.5657  139.3912  167.3234 C.3     1  UNL1        0.0520
     12 C         138.5355  139.1978  165.8362 C.ar    1  UNL1       -0.0178
     13 C         138.8669  137.8588  165.2471 C.ar    1  UNL1       -0.0031
     14 C         138.8367  137.6655  163.7599 C.ar    1  UNL1        0.0111
     15 C         138.4751  138.8111  162.8619 C.ar    1  UNL1        0.0577
     16 CL        138.4448  138.6178  161.3747 Cl      1  UNL1       -0.0822
     17 C         138.1436  140.1502  163.4510 C.ar    1  UNL1        0.0111
     18 C         138.1739  140.3435  164.9382 C.ar    1  UNL1       -0.0031
@<TRIPOS>BOND
     1     9    10    1
     2    10     8    1
     3     8     7    1
     4     7     4    1
     5     4     5    1
     6     5     6    1
     7     4     3    1
     8     3     1    1
     9     1     2    2
    10     2    11    1
    11    11    12    1
    12    12    13   ar
    13    13    14   ar
    14    14    15   ar
    15    15    16    1
    16    15    17   ar
    17    17    18   ar
    18    18    12   ar
@<TRIPOS>MOLECULE
*****
 18 18 0 0 0
SMALL
GASTEIGER

@<TRIPOS>ATOM
      1 C         141.6360  142.7855  163.3594 C.2     1  UNL1       -0.0130
      2 C         141.9348  143.1929  164.7718 C.2     1  UNL1       -0.0246
      3 C         140.4223  143.3268  162.6636 C.3     1  UNL1        0.0986
      4 N         139.0732  143.2093  163.3086 N.3     1  UNL1       -0.2690
      5 C         138.3995  144.4281  163.8657 C.3     1  UNL1        0.0724
      6 C         138.6287  144.8250  165.2940 C.3     1  UNL1        0.0188
      7 C         138.3977  141.8728  163.3964 C.3     1  UNL1        0.0724
      8 C         138.1458  141.2463  164.7358 C.3     1  UNL1        0.0173
      9 C         139.2440  139.9495  166.7011 C.3     1  UNL1        0.0000
     10 C         139.2758  141.0721  165.7067 C.3     1  UNL1        0.0014
     11 C         143.1484  142.6517  165.4676 C.3     1  UNL1        0.0520
     12 C         142.9932  141.6756  166.5960 C.ar    1  UNL1       -0.0178
     13 C         142.9063  142.1705  168.0093 C.ar    1  UNL1       -0.0031
     14 C         142.7510  141.1945  169.1376 C.ar    1  UNL1        0.0111
     15 C         142.6826  139.7234  168.8527 C.ar    1  UNL1        0.0577
     16 CL        142.5274  138.7473  169.9810 Cl      1  UNL1       -0.0822
     17 C         142.7695  139.2284  167.4394 C.ar    1  UNL1        0.0111
     18 C         142.9248  140.2045  166.3110 C.ar    1  UNL1       -0.0031
@<TRIPOS>BOND
     1     9    10    1
     2    10     8    1
     3     8     7    1
     4     7     4    1
     5     4     5    1
     6     5     6    1
     7     4     3    1
     8     3     1    1
     9     1     2    2
    10     2    11    1
    11    11    12    1
    12    12    13   ar
    13    13    14   ar
    14    14    15   ar
    15    15    16    1
    16    15    17   ar
    17    17    18   ar
    18    18    12   ar
@<TRIPOS>MOLECULE
*****
 18 18 0 0 0
SMALL
GASTEIGER

@<TRIPOS>ATOM
      1 C         142.6720  139.0333  168.9408 C.2     1  UNL1       -0.0130
      2 C         142.8659  139.4273  167.5065 C.2     1  UNL1       -0.0246
      3 C         142.1139  140.0219  169.9212 C.3     1  UNL1        0.0986
      4 N         141.5765  141.3362  169.4376 N.3     1  UNL1       -0.2690
      5 C         142.4769  142.5337  169.3652 C.3     1  UNL1        0.0724
      6 C         143.9094  142.4221  169.7958 C.3     1  UNL1        0.0188
      7 C         140.1387  141.4529  169.0263 C.3     1  UNL1        0.0724
      8 C         139.3246  140.2162  168.7860 C.3     1  UNL1        0.0173
      9 C         139.5097  140.5143  166.2117 C.3     1  UNL1        0.0000
     10 C         139.2100  139.6511  167.4013 C.3     1  UNL1        0.0014
     11 C         143.4240  138.4388  166.5260 C.3     1  UNL1        0.0520
     12 C         142.8523  138.3506  165.1421 C.ar    1  UNL1       -0.0178
     13 C         141.5696  137.6096  164.9063 C.ar    1  UNL1       -0.0031
     14 C         140.9979  137.5214  163.5223 C.ar    1  UNL1        0.0111
     15 C         141.7088  138.1743  162.3741 C.ar    1  UNL1        0.0577
     16 CL        141.1371  138.0861  160.9902 Cl      1  UNL1       -0.0822
     17 C         142.9915  138.9153  162.6099 C.ar    1  UNL1        0.0111
     18 C         143.5632  139.0035  163.9939 C.ar    1  UNL1       -0.0031
@<TRIPOS>BOND
     1     9    10    1
     2    10     8    1
     3     8     7    1
     4     7     4    1
     5     4     5    1
     6     5     6    1
     7     4     3    1
     8     3     1    1
     9     1     2    2
    10     2    11    1
    11    11    12    1
    12    12    13   ar
    13    13    14   ar
    14    14    15   ar
    15    15    16    1
    16    15    17   ar
    17    17    18   ar
    18    18    12   ar
