@<TRIPOS>MOLECULE
*****
 32 35 0 0 0
SMALL
GASTEIGER

@<TRIPOS>ATOM
      1 C         138.6783  141.7949  158.1474 C.ar    1  UNL1        0.1592
      2 C         138.9024  141.2811  159.5387 C.ar    1  UNL1        0.0532
      3 C         139.5755  142.1497  160.5597 C.ar    1  UNL1        0.0538
      4 C         140.0246  143.5322  160.1893 C.ar    1  UNL1        0.0180
      5 C         139.8006  144.0460  158.7980 C.ar    1  UNL1        0.0423
      6 C         140.1322  145.3557  158.1462 C.ar    1  UNL1        0.0966
      7 N         139.6639  145.2964  156.7224 N.ar    1  UNL1       -0.2512
      8 N         139.0430  143.9502  156.4942 N.ar    1  UNL1       -0.1662
      9 C         139.1274  143.1774  157.7771 C.ar    1  UNL1        0.1362
     10 C         139.7938  146.3912  155.7053 C.3     1  UNL1        0.1080
     11 C         139.0850  147.6966  155.9138 C.3     1  UNL1        0.0417
     12 C         139.2150  148.7914  154.8966 C.3     1  UNL1        0.0741
     13 N         140.0537  148.5808  153.6710 N.3     1  UNL1       -0.2714
     14 C         140.1836  149.6756  152.6539 C.3     1  UNL1        0.0896
     15 C         140.7625  147.2754  153.4625 C.3     1  UNL1        0.0741
     16 C         140.6326  146.1806  154.4797 C.3     1  UNL1        0.0417
     17 N         139.7996  141.6359  161.9511 N.am    1  UNL1       -0.2791
     18 C         138.6617  141.5942  162.9275 C.2     1  UNL1        0.2672
     19 O         137.2997  142.0664  162.5126 O.2     1  UNL1       -0.2682
     20 H         140.6935  141.3259  162.2234 H       1  UNL1        0.1552
     21 C         138.8857  141.0804  164.3188 C.ar    1  UNL1        0.1347
     22 C         139.6894  141.8865  165.2957 C.ar    1  UNL1        0.0238
     23 C         139.9134  141.3726  166.6871 C.ar    1  UNL1        0.0032
     24 C         139.3337  140.0527  167.1015 C.ar    1  UNL1        0.0231
     25 C         138.5300  139.2466  166.1245 C.ar    1  UNL1        0.1527
     26 N         138.3061  139.7605  164.7333 N.ar    1  UNL1       -0.2368
     27 C         137.9504  137.9266  166.5390 C.3     1  UNL1        0.4348
     28 F         137.3708  136.6067  166.9534 F       1  UNL1       -0.1644
     29 F         137.2344  138.5973  167.6737 F       1  UNL1       -0.1644
     30 F         138.6664  137.2560  165.4043 F       1  UNL1       -0.1644
     31 C         136.6197  141.2573  156.6564 C.3     1  UNL1        0.2525
     32 O         138.0052  140.9263  157.1265 O.3     1  UNL1       -0.4698
@<TRIPOS>BOND
     1    31    32    1
     2    32     1    1
     3     1     2   ar
     4     2     3   ar
     5     3    17    1
     6    17    18   am
     7    18    19    2
     8    18    21    1
     9    21    22   ar
    10    22    23   ar
    11    23    24   ar
    12    24    25   ar
    13    25    27    1
    14    27    28    1
    15    27    29    1
    16    27    30    1
    17    25    26   ar
    18     3     4   ar
    19     4     5   ar
    20     5     6   ar
    21     6     7   ar
    22     7    10    1
    23    10    11    1
    24    11    12    1
    25    12    13    1
    26    13    14    1
    27    13    15    1
    28    15    16    1
    29     7     8   ar
    30     8     9   ar
    31     9     1   ar
    32    26    21   ar
    33     9     5   ar
    34    16    10    1
    35    17    20    1
@<TRIPOS>MOLECULE
*****
 32 35 0 0 0
SMALL
GASTEIGER

@<TRIPOS>ATOM
      1 C         144.0118  140.2277  162.1160 C.ar    1  UNL1        0.1592
      2 C         144.0499  139.4078  160.8605 C.ar    1  UNL1        0.0532
      3 C         143.3018  138.1097  160.7894 C.ar    1  UNL1        0.0538
      4 C         142.5153  137.6314  161.9739 C.ar    1  UNL1        0.0180
      5 C         142.4772  138.4513  163.2294 C.ar    1  UNL1        0.0423
      6 C         141.7932  138.2377  164.5472 C.ar    1  UNL1        0.0966
      7 N         142.1187  139.4039  165.4327 N.ar    1  UNL1       -0.2512
      8 N         143.0038  140.3382  164.6622 N.ar    1  UNL1       -0.1662
      9 C         143.2254  139.7495  163.3004 C.ar    1  UNL1        0.1362
     10 C         141.6426  139.6012  166.8414 C.3     1  UNL1        0.1080
     11 C         140.2162  139.9834  167.1044 C.3     1  UNL1        0.0417
     12 C         139.7402  140.1807  168.5132 C.3     1  UNL1        0.0741
     13 N         140.6906  139.9957  169.6589 N.3     1  UNL1       -0.2714
     14 C         140.2145  140.1930  171.0676 C.3     1  UNL1        0.0896
     15 C         142.1170  139.6134  169.3958 C.3     1  UNL1        0.0741
     16 C         142.5930  139.4162  167.9870 C.3     1  UNL1        0.0417
     17 N         143.3399  137.2898  159.5338 N.am    1  UNL1       -0.2791
     18 C         142.5267  137.7031  158.3432 C.2     1  UNL1        0.2672
     19 O         141.6752  138.9364  158.4080 O.2     1  UNL1       -0.2682
     20 H         143.8988  136.4804  159.4913 H       1  UNL1        0.1552
     21 C         142.5648  136.8833  157.0876 C.ar    1  UNL1        0.1347
     22 C         141.9593  137.4182  155.8238 C.ar    1  UNL1        0.0238
     23 C         141.9975  136.5982  154.5683 C.ar    1  UNL1        0.0032
     24 C         142.6412  135.2434  154.5766 C.ar    1  UNL1        0.0231
     25 C         143.2467  134.7085  155.8405 C.ar    1  UNL1        0.1527
     26 N         143.2085  135.5284  157.0959 N.ar    1  UNL1       -0.2368
     27 C         143.8904  133.3536  155.8488 C.3     1  UNL1        0.4348
     28 F         144.5340  131.9988  155.8571 F       1  UNL1       -0.1644
     29 F         143.3250  133.0767  154.4873 F       1  UNL1       -0.1644
     30 F         144.4557  133.6306  157.2103 F       1  UNL1       -0.1644
     31 C         145.7959  141.7371  163.2511 C.3     1  UNL1        0.2525
     32 O         144.7600  141.5258  162.1871 O.3     1  UNL1       -0.4698
@<TRIPOS>BOND
     1    31    32    1
     2    32     1    1
     3     1     2   ar
     4     2     3   ar
     5     3    17    1
     6    17    18   am
     7    18    19    2
     8    18    21    1
     9    21    22   ar
    10    22    23   ar
    11    23    24   ar
    12    24    25   ar
    13    25    27    1
    14    27    28    1
    15    27    29    1
    16    27    30    1
    17    25    26   ar
    18     3     4   ar
    19     4     5   ar
    20     5     6   ar
    21     6     7   ar
    22     7    10    1
    23    10    11    1
    24    11    12    1
    25    12    13    1
    26    13    14    1
    27    13    15    1
    28    15    16    1
    29     7     8   ar
    30     8     9   ar
    31     9     1   ar
    32    26    21   ar
    33     9     5   ar
    34    16    10    1
    35    17    20    1
@<TRIPOS>MOLECULE
*****
 32 35 0 0 0
SMALL
GASTEIGER

@<TRIPOS>ATOM
      1 C         141.4653  144.3682  161.4897 C.ar    1  UNL1        0.1592
      2 C         141.1980  143.9598  162.9080 C.ar    1  UNL1        0.0532
      3 C         141.9207  142.7860  163.4994 C.ar    1  UNL1        0.0538
      4 C         142.9108  142.0205  162.6725 C.ar    1  UNL1        0.0180
      5 C         143.1782  142.4290  161.2542 C.ar    1  UNL1        0.0423
      6 C         144.0920  141.8702  160.2041 C.ar    1  UNL1        0.0966
      7 N         143.9340  142.6987  158.9637 N.ar    1  UNL1       -0.2512
      8 N         142.9226  143.7695  159.2472 N.ar    1  UNL1       -0.1662
      9 C         142.4554  143.6028  160.6628 C.ar    1  UNL1        0.1362
     10 C         144.6600  142.4926  157.6674 C.3     1  UNL1        0.1080
     11 C         146.1594  142.5205  157.6348 C.3     1  UNL1        0.0417
     12 C         146.8854  142.3144  156.3384 C.3     1  UNL1        0.0741
     13 N         146.1120  142.0805  155.0746 N.3     1  UNL1       -0.2714
     14 C         146.8380  141.8744  153.7783 C.3     1  UNL1        0.0896
     15 C         144.6126  142.0527  155.1072 C.3     1  UNL1        0.0741
     16 C         143.8867  142.2588  156.4036 C.3     1  UNL1        0.0417
     17 N         141.6533  142.3776  164.9178 N.am    1  UNL1       -0.2791
     18 C         142.6899  142.6168  165.9753 C.2     1  UNL1        0.2672
     19 O         143.9938  143.2646  165.6145 O.2     1  UNL1       -0.2682
     20 H         140.7975  141.9524  165.1547 H       1  UNL1        0.1552
     21 C         142.4225  142.2084  167.3937 C.ar    1  UNL1        0.1347
     22 C         143.5051  142.3274  168.4251 C.ar    1  UNL1        0.0238
     23 C         143.2376  141.9189  169.8435 C.ar    1  UNL1        0.0032
     24 C         141.8877  141.3915  170.2304 C.ar    1  UNL1        0.0231
     25 C         140.8052  141.2726  169.1988 C.ar    1  UNL1        0.1527
     26 N         141.0726  141.6810  167.7805 N.ar    1  UNL1       -0.2368
     27 C         139.4553  140.7452  169.5856 C.3     1  UNL1        0.4348
     28 F         138.1054  140.2178  169.9725 F       1  UNL1       -0.1644
     29 F         139.6359  139.5920  168.6436 F       1  UNL1       -0.1644
     30 F         139.2747  141.8985  170.5277 F       1  UNL1       -0.1644
     31 C         139.7652  146.3180  161.7306 C.3     1  UNL1        0.2525
     32 O         140.7425  145.5420  160.8983 O.3     1  UNL1       -0.4698
@<TRIPOS>BOND
     1    31    32    1
     2    32     1    1
     3     1     2   ar
     4     2     3   ar
     5     3    17    1
     6    17    18   am
     7    18    19    2
     8    18    21    1
     9    21    22   ar
    10    22    23   ar
    11    23    24   ar
    12    24    25   ar
    13    25    27    1
    14    27    28    1
    15    27    29    1
    16    27    30    1
    17    25    26   ar
    18     3     4   ar
    19     4     5   ar
    20     5     6   ar
    21     6     7   ar
    22     7    10    1
    23    10    11    1
    24    11    12    1
    25    12    13    1
    26    13    14    1
    27    13    15    1
    28    15    16    1
    29     7     8   ar
    30     8     9   ar
    31     9     1   ar
    32    26    21   ar
    33     9     5   ar
    34    16    10    1
    35    17    20    1
@<TRIPOS>MOLECULE
*****
 32 35 0 0 0
SMALL
GASTEIGER

@<TRIPOS>ATOM
      1 C         140.1047  138.5999  161.9864 C.ar    1  UNL1        0.1592
      2 C         139.3011  138.7538  160.7292 C.ar    1  UNL1        0.0532
      3 C         138.1647  139.7315  160.6805 C.ar    1  UNL1        0.0538
      4 C         137.8317  140.5555  161.8890 C.ar    1  UNL1        0.0180
      5 C         138.6353  140.4015  163.1462 C.ar    1  UNL1        0.0423
      6 C         138.5425  141.0716  164.4850 C.ar    1  UNL1        0.0966
      7 N         139.6217  140.5079  165.3611 N.ar    1  UNL1       -0.2512
      8 N         140.3814  139.4895  164.5638 N.ar    1  UNL1       -0.1662
      9 C         139.7718  139.4238  163.1949 C.ar    1  UNL1        0.1362
     10 C         139.8934  140.8947  166.7847 C.3     1  UNL1        0.1080
     11 C         140.5156  142.2238  167.0951 C.3     1  UNL1        0.0417
     12 C         140.7873  142.6106  168.5187 C.3     1  UNL1        0.0741
     13 N         140.4369  141.6682  169.6319 N.3     1  UNL1       -0.2714
     14 C         140.7087  142.0550  171.0555 C.3     1  UNL1        0.0896
     15 C         139.8148  140.3391  169.3215 C.3     1  UNL1        0.0741
     16 C         139.5430  139.9524  167.8979 C.3     1  UNL1        0.0417
     17 N         137.3610  139.8854  159.4232 N.am    1  UNL1       -0.2791
     18 C         137.8927  140.7116  158.2897 C.2     1  UNL1        0.2672
     19 O         139.2278  141.3838  158.4134 O.2     1  UNL1       -0.2682
     20 H         136.4847  139.4442  159.3420 H       1  UNL1        0.1552
     21 C         137.0891  140.8655  157.0325 C.ar    1  UNL1        0.1347
     22 C         137.7479  141.3533  155.7763 C.ar    1  UNL1        0.0238
     23 C         136.9442  141.5071  154.5191 C.ar    1  UNL1        0.0032
     24 C         135.4818  141.1733  154.5181 C.ar    1  UNL1        0.0231
     25 C         134.8231  140.6855  155.7744 C.ar    1  UNL1        0.1527
     26 N         135.6267  140.5316  157.0315 N.ar    1  UNL1       -0.2368
     27 C         133.3607  140.3516  155.7734 C.3     1  UNL1        0.4348
     28 F         131.8984  140.0178  155.7724 F       1  UNL1       -0.1644
     29 F         133.6920  138.9002  155.9566 F       1  UNL1       -0.1644
     30 F         133.0295  141.8031  155.5902 F       1  UNL1       -0.1644
     31 C         142.4195  137.7957  161.1234 C.3     1  UNL1        0.2525
     32 O         141.2411  137.6221  162.0351 O.3     1  UNL1       -0.4698
@<TRIPOS>BOND
     1    31    32    1
     2    32     1    1
     3     1     2   ar
     4     2     3   ar
     5     3    17    1
     6    17    18   am
     7    18    19    2
     8    18    21    1
     9    21    22   ar
    10    22    23   ar
    11    23    24   ar
    12    24    25   ar
    13    25    27    1
    14    27    28    1
    15    27    29    1
    16    27    30    1
    17    25    26   ar
    18     3     4   ar
    19     4     5   ar
    20     5     6   ar
    21     6     7   ar
    22     7    10    1
    23    10    11    1
    24    11    12    1
    25    12    13    1
    26    13    14    1
    27    13    15    1
    28    15    16    1
    29     7     8   ar
    30     8     9   ar
    31     9     1   ar
    32    26    21   ar
    33     9     5   ar
    34    16    10    1
    35    17    20    1
@<TRIPOS>MOLECULE
*****
 32 35 0 0 0
SMALL
GASTEIGER

@<TRIPOS>ATOM
      1 C         141.9752  144.3660  161.4432 C.ar    1  UNL1        0.1592
      2 C         142.1126  144.0361  162.9000 C.ar    1  UNL1        0.0532
      3 C         143.0927  142.9907  163.3431 C.ar    1  UNL1        0.0538
      4 C         143.9357  142.2751  162.3294 C.ar    1  UNL1        0.0180
      5 C         143.7983  142.6051  160.8726 C.ar    1  UNL1        0.0423
      6 C         144.4886  142.0702  159.6530 C.ar    1  UNL1        0.0966
      7 N         143.9350  142.7851  158.4561 N.ar    1  UNL1       -0.2512
      8 N         142.9026  143.7618  158.9360 N.ar    1  UNL1       -0.1662
      9 C         142.8181  143.6505  160.4295 C.ar    1  UNL1        0.1362
     10 C         144.3423  142.5625  157.0297 C.3     1  UNL1        0.1080
     11 C         143.3538  142.7858  155.9239 C.3     1  UNL1        0.0417
     12 C         143.7612  142.5631  154.4975 C.3     1  UNL1        0.0741
     13 N         145.1570  142.1173  154.1770 N.3     1  UNL1       -0.2714
     14 C         145.5643  141.8946  152.7506 C.3     1  UNL1        0.0896
     15 C         146.1456  141.8940  155.2828 C.3     1  UNL1        0.0741
     16 C         145.7382  142.1167  156.7092 C.3     1  UNL1        0.0417
     17 N         143.2301  142.6608  164.8000 N.am    1  UNL1       -0.2791
     18 C         142.4838  141.4954  165.3786 C.2     1  UNL1        0.2672
     19 O         141.6002  140.6598  164.5005 O.2     1  UNL1       -0.2682
     20 H         143.8101  143.2092  165.3763 H       1  UNL1        0.1552
     21 C         142.6212  141.1654  166.8354 C.ar    1  UNL1        0.1347
     22 C         142.4297  139.7541  167.3061 C.ar    1  UNL1        0.0238
     23 C         142.5670  139.4243  168.7630 C.ar    1  UNL1        0.0032
     24 C         142.8959  140.5057  169.7491 C.ar    1  UNL1        0.0231
     25 C         143.0874  141.9170  169.2783 C.ar    1  UNL1        0.1527
     26 N         142.9500  142.2468  167.8216 N.ar    1  UNL1       -0.2368
     27 C         143.4163  142.9984  170.2645 C.3     1  UNL1        0.4348
     28 F         143.7451  144.0798  171.2506 F       1  UNL1       -0.1644
     29 F         141.9657  143.3734  170.3370 F       1  UNL1       -0.1644
     30 F         144.8668  142.6234  170.1920 F       1  UNL1       -0.1644
     31 C         140.0227  145.9926  161.9834 C.3     1  UNL1        0.2525
     32 O         140.9950  145.4114  161.0002 O.3     1  UNL1       -0.4698
@<TRIPOS>BOND
     1    31    32    1
     2    32     1    1
     3     1     2   ar
     4     2     3   ar
     5     3    17    1
     6    17    18   am
     7    18    19    2
     8    18    21    1
     9    21    22   ar
    10    22    23   ar
    11    23    24   ar
    12    24    25   ar
    13    25    27    1
    14    27    28    1
    15    27    29    1
    16    27    30    1
    17    25    26   ar
    18     3     4   ar
    19     4     5   ar
    20     5     6   ar
    21     6     7   ar
    22     7    10    1
    23    10    11    1
    24    11    12    1
    25    12    13    1
    26    13    14    1
    27    13    15    1
    28    15    16    1
    29     7     8   ar
    30     8     9   ar
    31     9     1   ar
    32    26    21   ar
    33     9     5   ar
    34    16    10    1
    35    17    20    1
@<TRIPOS>MOLECULE
*****
 32 35 0 0 0
SMALL
GASTEIGER

@<TRIPOS>ATOM
      1 C         139.4111  138.5747  156.3969 C.ar    1  UNL1        0.1592
      2 C         139.3922  139.9120  157.0760 C.ar    1  UNL1        0.0532
      3 C         140.5279  140.3160  157.9686 C.ar    1  UNL1        0.0538
      4 C         141.6827  139.3827  158.1822 C.ar    1  UNL1        0.0180
      5 C         141.7016  138.0454  157.5031 C.ar    1  UNL1        0.0423
      6 C         142.6970  136.9234  157.5233 C.ar    1  UNL1        0.0966
      7 N         142.1764  135.8260  156.6432 N.ar    1  UNL1       -0.2512
      8 N         140.8593  136.2697  156.0790 N.ar    1  UNL1       -0.1662
      9 C         140.5658  137.6414  156.6104 C.ar    1  UNL1        0.1362
     10 C         142.8540  134.5150  156.3744 C.3     1  UNL1        0.1080
     11 C         142.6206  133.8026  155.0752 C.3     1  UNL1        0.0417
     12 C         143.2982  132.4916  154.8065 C.3     1  UNL1        0.0741
     13 N         144.2092  131.8931  155.8370 N.3     1  UNL1       -0.2714
     14 C         144.8867  130.5821  155.5682 C.3     1  UNL1        0.0896
     15 C         144.4426  132.6055  157.1362 C.3     1  UNL1        0.0741
     16 C         143.7649  133.9165  157.4049 C.3     1  UNL1        0.0417
     17 N         140.5090  141.6535  158.6477 N.am    1  UNL1       -0.2791
     18 C         139.8113  141.8156  159.9656 C.2     1  UNL1        0.2672
     19 O         139.1324  140.6404  160.6044 O.2     1  UNL1       -0.2682
     20 H         140.9546  142.4248  158.2284 H       1  UNL1        0.1552
     21 C         139.7923  143.1529  160.6447 C.ar    1  UNL1        0.1347
     22 C         140.3109  144.3649  159.9290 C.ar    1  UNL1        0.0238
     23 C         140.2919  145.7023  160.6082 C.ar    1  UNL1        0.0032
     24 C         139.7544  145.8276  162.0030 C.ar    1  UNL1        0.0231
     25 C         139.2359  144.6155  162.7186 C.ar    1  UNL1        0.1527
     26 N         139.2549  143.2782  162.0395 N.ar    1  UNL1       -0.2368
     27 C         138.6985  144.7408  164.1134 C.3     1  UNL1        0.4348
     28 F         138.1611  144.8662  165.5082 F       1  UNL1       -0.1644
     29 F         140.0678  145.1012  164.6086 F       1  UNL1       -0.1644
     30 F         137.3293  144.3805  163.6182 F       1  UNL1       -0.1644
     31 C         138.4689  138.1269  154.0174 C.3     1  UNL1        0.2525
     32 O         138.2754  138.1707  155.5042 O.3     1  UNL1       -0.4698
@<TRIPOS>BOND
     1    31    32    1
     2    32     1    1
     3     1     2   ar
     4     2     3   ar
     5     3    17    1
     6    17    18   am
     7    18    19    2
     8    18    21    1
     9    21    22   ar
    10    22    23   ar
    11    23    24   ar
    12    24    25   ar
    13    25    27    1
    14    27    28    1
    15    27    29    1
    16    27    30    1
    17    25    26   ar
    18     3     4   ar
    19     4     5   ar
    20     5     6   ar
    21     6     7   ar
    22     7    10    1
    23    10    11    1
    24    11    12    1
    25    12    13    1
    26    13    14    1
    27    13    15    1
    28    15    16    1
    29     7     8   ar
    30     8     9   ar
    31     9     1   ar
    32    26    21   ar
    33     9     5   ar
    34    16    10    1
    35    17    20    1
@<TRIPOS>MOLECULE
*****
 32 35 0 0 0
SMALL
GASTEIGER

@<TRIPOS>ATOM
      1 C         140.1475  138.4562  161.9451 C.ar    1  UNL1        0.1592
      2 C         139.4210  138.6202  160.6430 C.ar    1  UNL1        0.0532
      3 C         138.3516  139.6631  160.5071 C.ar    1  UNL1        0.0538
      4 C         138.0085  140.5421  161.6732 C.ar    1  UNL1        0.0180
      5 C         138.7349  140.3781  162.9753 C.ar    1  UNL1        0.0423
      6 C         138.6149  141.0929  164.2885 C.ar    1  UNL1        0.0966
      7 N         139.6103  140.4918  165.2361 N.ar    1  UNL1       -0.2512
      8 N         140.3454  139.4054  164.5085 N.ar    1  UNL1       -0.1662
      9 C         139.8044  139.3351  163.1112 C.ar    1  UNL1        0.1362
     10 C         139.8317  140.9045  166.6611 C.3     1  UNL1        0.1080
     11 C         139.4842  139.9642  167.7769 C.3     1  UNL1        0.0417
     12 C         139.7056  140.3770  169.2019 C.3     1  UNL1        0.0741
     13 N         140.2744  141.7301  169.5111 N.3     1  UNL1       -0.2714
     14 C         140.4958  142.1428  170.9361 C.3     1  UNL1        0.0896
     15 C         140.6219  142.6704  168.3953 C.3     1  UNL1        0.0741
     16 C         140.4005  142.2576  166.9703 C.3     1  UNL1        0.0417
     17 N         137.6251  139.8271  159.2049 N.am    1  UNL1       -0.2791
     18 C         138.2098  140.6858  158.1229 C.2     1  UNL1        0.2672
     19 O         139.5209  141.3805  158.3429 O.2     1  UNL1       -0.2682
     20 H         136.7646  139.3712  159.0605 H       1  UNL1        0.1552
     21 C         137.4834  140.8499  156.8208 C.ar    1  UNL1        0.1347
     22 C         136.8829  142.1759  156.4589 C.ar    1  UNL1        0.0238
     23 C         136.1565  142.3399  155.1567 C.ar    1  UNL1        0.0032
     24 C         136.0305  141.1778  154.2166 C.ar    1  UNL1        0.0231
     25 C         136.6310  139.8518  154.5787 C.ar    1  UNL1        0.1527
     26 N         137.3574  139.6878  155.8808 N.ar    1  UNL1       -0.2368
     27 C         136.5050  138.6897  153.6386 C.3     1  UNL1        0.4348
     28 F         136.3791  137.5277  152.6985 F       1  UNL1       -0.1644
     29 F         135.6295  139.5117  152.7399 F       1  UNL1       -0.1644
     30 F         137.3806  137.8677  154.5373 F       1  UNL1       -0.1644
     31 C         142.6586  137.8218  162.1489 C.3     1  UNL1        0.2525
     32 O         141.2169  137.4132  162.0810 O.3     1  UNL1       -0.4698
@<TRIPOS>BOND
     1    31    32    1
     2    32     1    1
     3     1     2   ar
     4     2     3   ar
     5     3    17    1
     6    17    18   am
     7    18    19    2
     8    18    21    1
     9    21    22   ar
    10    22    23   ar
    11    23    24   ar
    12    24    25   ar
    13    25    27    1
    14    27    28    1
    15    27    29    1
    16    27    30    1
    17    25    26   ar
    18     3     4   ar
    19     4     5   ar
    20     5     6   ar
    21     6     7   ar
    22     7    10    1
    23    10    11    1
    24    11    12    1
    25    12    13    1
    26    13    14    1
    27    13    15    1
    28    15    16    1
    29     7     8   ar
    30     8     9   ar
    31     9     1   ar
    32    26    21   ar
    33     9     5   ar
    34    16    10    1
    35    17    20    1
@<TRIPOS>MOLECULE
*****
 32 35 0 0 0
SMALL
GASTEIGER

@<TRIPOS>ATOM
      1 C         143.6073  140.0003  158.0896 C.ar    1  UNL1        0.1592
      2 C         142.8412  140.3593  159.3283 C.ar    1  UNL1        0.0532
      3 C         143.1651  141.6215  160.0710 C.ar    1  UNL1        0.0538
      4 C         144.2552  142.5248  159.5753 C.ar    1  UNL1        0.0180
      5 C         145.0213  142.1658  158.3366 C.ar    1  UNL1        0.0423
      6 C         146.1407  142.8548  157.6138 C.ar    1  UNL1        0.0966
      7 N         146.5085  142.0183  156.4243 N.ar    1  UNL1       -0.2512
      8 N         145.6165  140.8124  156.4119 N.ar    1  UNL1       -0.1662
      9 C         144.6974  140.9036  157.5938 C.ar    1  UNL1        0.1362
     10 C         147.5801  142.3325  155.4229 C.3     1  UNL1        0.1080
     11 C         147.3163  143.3233  154.3280 C.3     1  UNL1        0.0417
     12 C         148.3881  143.6374  153.3266 C.3     1  UNL1        0.0741
     13 N         149.7236  142.9609  153.4201 N.3     1  UNL1       -0.2714
     14 C         150.7952  143.2752  152.4187 C.3     1  UNL1        0.0896
     15 C         149.9874  141.9702  154.5150 C.3     1  UNL1        0.0741
     16 C         148.9156  141.6560  155.5164 C.3     1  UNL1        0.0417
     17 N         142.3990  141.9805  161.3097 N.am    1  UNL1       -0.2791
     18 C         142.9831  141.6960  162.6617 C.2     1  UNL1        0.2672
     19 O         144.3333  141.0525  162.7751 O.2     1  UNL1       -0.2682
     20 H         141.5128  142.4028  161.2353 H       1  UNL1        0.1552
     21 C         142.2170  142.0549  163.9004 C.ar    1  UNL1        0.1347
     22 C         142.7991  141.7662  165.2523 C.ar    1  UNL1        0.0238
     23 C         142.0329  142.1252  166.4910 C.ar    1  UNL1        0.0032
     24 C         140.6847  142.7729  166.3776 C.ar    1  UNL1        0.0231
     25 C         140.1027  143.0617  165.0256 C.ar    1  UNL1        0.1527
     26 N         140.8688  142.7027  163.7870 N.ar    1  UNL1       -0.2368
     27 C         138.7545  143.7094  164.9123 C.3     1  UNL1        0.4348
     28 F         137.4063  144.3571  164.7989 F       1  UNL1       -0.1644
     29 F         138.1120  142.3568  164.8249 F       1  UNL1       -0.1644
     30 F         139.3970  145.0620  164.9996 F       1  UNL1       -0.1644
     31 C         142.7075  137.5630  158.0802 C.3     1  UNL1        0.2525
     32 O         143.2833  138.7381  157.3468 O.3     1  UNL1       -0.4698
@<TRIPOS>BOND
     1    31    32    1
     2    32     1    1
     3     1     2   ar
     4     2     3   ar
     5     3    17    1
     6    17    18   am
     7    18    19    2
     8    18    21    1
     9    21    22   ar
    10    22    23   ar
    11    23    24   ar
    12    24    25   ar
    13    25    27    1
    14    27    28    1
    15    27    29    1
    16    27    30    1
    17    25    26   ar
    18     3     4   ar
    19     4     5   ar
    20     5     6   ar
    21     6     7   ar
    22     7    10    1
    23    10    11    1
    24    11    12    1
    25    12    13    1
    26    13    14    1
    27    13    15    1
    28    15    16    1
    29     7     8   ar
    30     8     9   ar
    31     9     1   ar
    32    26    21   ar
    33     9     5   ar
    34    16    10    1
    35    17    20    1
@<TRIPOS>MOLECULE
*****
 32 35 0 0 0
SMALL
GASTEIGER

@<TRIPOS>ATOM
      1 C         142.0094  143.5178  161.2627 C.ar    1  UNL1        0.1592
      2 C         141.0626  143.5052  160.0993 C.ar    1  UNL1        0.0532
      3 C         139.6125  143.1889  160.3158 C.ar    1  UNL1        0.0538
      4 C         139.1090  142.8852  161.6958 C.ar    1  UNL1        0.0180
      5 C         140.0557  142.8978  162.8592 C.ar    1  UNL1        0.0423
      6 C         139.8509  142.6402  164.3227 C.ar    1  UNL1        0.0966
      7 N         141.1746  142.7973  165.0106 N.ar    1  UNL1       -0.2512
      8 N         142.1974  143.1520  163.9723 N.ar    1  UNL1       -0.1662
      9 C         141.5059  143.2141  162.6427 C.ar    1  UNL1        0.1362
     10 C         141.4305  142.6293  166.4790 C.3     1  UNL1        0.1080
     11 C         142.7904  142.2192  166.9612 C.3     1  UNL1        0.0417
     12 C         143.0463  142.0512  168.4297 C.3     1  UNL1        0.0741
     13 N         141.9423  142.2932  169.4159 N.3     1  UNL1       -0.2714
     14 C         142.1983  142.1252  170.8843 C.3     1  UNL1        0.0896
     15 C         140.5825  142.7033  168.9337 C.3     1  UNL1        0.0741
     16 C         140.3266  142.8714  167.4652 C.3     1  UNL1        0.0417
     17 N         138.6657  143.1763  159.1523 N.am    1  UNL1       -0.2791
     18 C         138.3033  141.8779  158.4944 C.2     1  UNL1        0.2672
     19 O         138.8877  140.5922  158.9998 O.2     1  UNL1       -0.2682
     20 H         138.2822  144.0201  158.8206 H       1  UNL1        0.1552
     21 C         137.3566  141.8653  157.3310 C.ar    1  UNL1        0.1347
     22 C         137.4497  142.9282  156.2767 C.ar    1  UNL1        0.0238
     23 C         136.5028  142.9155  155.1133 C.ar    1  UNL1        0.0032
     24 C         135.4631  141.8399  155.0041 C.ar    1  UNL1        0.0231
     25 C         135.3701  140.7769  156.0585 C.ar    1  UNL1        0.1527
     26 N         136.3169  140.7896  157.2218 N.ar    1  UNL1       -0.2368
     27 C         134.3303  139.7013  155.9493 C.3     1  UNL1        0.4348
     28 F         133.2906  138.6257  155.8401 F       1  UNL1       -0.1644
     29 F         135.2326  138.9214  155.0396 F       1  UNL1       -0.1644
     30 F         133.4280  140.4812  156.8590 F       1  UNL1       -0.1644
     31 C         144.4806  142.7359  161.0844 C.3     1  UNL1        0.2525
     32 O         143.4596  143.8341  161.0461 O.3     1  UNL1       -0.4698
@<TRIPOS>BOND
     1    31    32    1
     2    32     1    1
     3     1     2   ar
     4     2     3   ar
     5     3    17    1
     6    17    18   am
     7    18    19    2
     8    18    21    1
     9    21    22   ar
    10    22    23   ar
    11    23    24   ar
    12    24    25   ar
    13    25    27    1
    14    27    28    1
    15    27    29    1
    16    27    30    1
    17    25    26   ar
    18     3     4   ar
    19     4     5   ar
    20     5     6   ar
    21     6     7   ar
    22     7    10    1
    23    10    11    1
    24    11    12    1
    25    12    13    1
    26    13    14    1
    27    13    15    1
    28    15    16    1
    29     7     8   ar
    30     8     9   ar
    31     9     1   ar
    32    26    21   ar
    33     9     5   ar
    34    16    10    1
    35    17    20    1
