@<TRIPOS>MOLECULE
*****
 40 46 0 0 0
SMALL
GASTEIGER

@<TRIPOS>ATOM
      1 C         141.5789  142.0382  161.6990 C.3     1  UNL1        0.1558
      2 N         141.8244  141.3161  160.4075 N.3     1  UNL1       -0.2809
      3 C         142.3967  139.9296  160.4206 C.3     1  UNL1        0.1166
      4 C         142.7234  139.2653  161.7252 C.3     1  UNL1        0.0511
      5 C         142.4778  139.9875  163.0168 C.2     1  UNL1       -0.0037
      6 C         141.9055  141.3739  163.0037 C.2     1  UNL1        0.0784
      7 N         141.7732  141.8342  164.4252 N.2     1  UNL1       -0.2519
      8 C         142.2637  140.7321  165.3168 C.2     1  UNL1        0.0627
      9 C         142.3701  140.6205  166.8088 C.3     1  UNL1        0.0717
     10 C         142.9119  139.3675  167.4304 C.2     1  UNL1       -0.0198
     11 C         143.3473  138.2261  166.5599 C.2     1  UNL1       -0.0042
     12 C         143.2410  138.3378  165.0679 C.2     1  UNL1        0.0006
     13 C         142.6992  139.5908  164.4463 C.2     1  UNL1        0.0111
     14 H         142.4656  141.8941  159.8642 H       1  UNL1        0.1245
     15 C         141.1706  143.1219  162.6526 C.ar    1  UNL1        0.2023
     16 N         141.9787  144.3346  163.0074 N.ar    1  UNL1       -0.0586
     17 O         141.1900  145.1451  163.9929 O.2     1  UNL1       -0.3373
     18 C         139.8944  144.4333  164.2470 C.ar    1  UNL1        0.2369
     19 C         138.8025  144.8914  165.1678 C.3     1  UNL1        0.0978
     20 N         139.8824  143.1828  163.4186 N.ar    1  UNL1       -0.1928
     21 C         142.6423  139.2073  159.1290 C.ar    1  UNL1        0.1319
     22 N         142.5905  137.7221  158.9258 N.ar    1  UNL1       -0.2282
     23 C         142.8990  137.4403  157.4852 C.ar    1  UNL1        0.1171
     24 C         143.1414  138.7514  156.7980 C.ar    1  UNL1        0.0942
     25 N         142.9827  139.8435  157.8140 N.ar    1  UNL1       -0.3385
     26 H         143.0842  140.8084  157.6470 H       1  UNL1        0.1672
     27 C         142.9552  136.0853  156.8442 C.ar    1  UNL1        0.1006
     28 C         142.6042  135.9262  155.3945 C.ar    1  UNL1        0.0230
     29 C         142.6603  134.5712  154.7536 C.ar    1  UNL1        0.0328
     30 C         143.0676  133.3754  155.5622 C.ar    1  UNL1        0.1592
     31 F         143.1238  132.0203  154.9213 F       1  UNL1       -0.2025
     32 C         143.4186  133.5344  157.0119 C.ar    1  UNL1        0.1284
     33 N         143.3624  134.8894  157.6529 N.ar    1  UNL1       -0.2399
     34 N         141.0979  144.7966  159.0110 N.ar    1  UNL1       -0.2497
     35 C         141.9815  143.8788  159.8029 C.ar    1  UNL1        0.0944
     36 C         141.1104  143.0789  160.7256 C.ar    1  UNL1        0.0423
     37 C         139.6885  143.5023  160.5039 C.ar    1  UNL1        0.1194
     38 N         139.6809  144.5639  159.4442 N.ar    1  UNL1       -0.1679
     39 C         140.6211  146.1806  156.8645 C.3     1  UNL1        0.0284
     40 C         141.5519  145.7753  157.9688 C.3     1  UNL1        0.1276
@<TRIPOS>BOND
     1    39    40    1
     2    40    34    1
     3    34    35   ar
     4    35    36   ar
     5     1    36    1
     6     1    15    1
     7    15    16   ar
     8    16    17   ar
     9    17    18   ar
    10    18    19    1
    11    18    20   ar
    12     1     2    1
    13     2     3    1
    14     3    21    1
    15    21    22   ar
    16    22    23   ar
    17    23    27    1
    18    27    28   ar
    19    28    29   ar
    20    29    30   ar
    21    30    31    1
    22    30    32   ar
    23    32    33   ar
    24    23    24   ar
    25    24    25   ar
    26     3     4    1
    27     4     5    1
    28     5     6    2
    29     6     7    1
    30     7     8    2
    31     8     9    1
    32     9    10    1
    33    10    11    2
    34    11    12    1
    35    12    13    2
    36    36    37   ar
    37    37    38   ar
    38    38    34   ar
    39     6     1    1
    40    13     8    1
    41    20    15   ar
    42    25    21   ar
    43    13     5    1
    44    33    27   ar
    45     2    14    1
    46    25    26    1
@<TRIPOS>MOLECULE
*****
 40 46 0 0 0
SMALL
GASTEIGER

@<TRIPOS>ATOM
      1 C         139.9845  141.7557  161.1045 C.3     1  UNL1        0.1558
      2 N         140.7205  141.1360  159.9537 N.3     1  UNL1       -0.2809
      3 C         141.0396  139.6704  159.9694 C.3     1  UNL1        0.1166
      4 C         140.6228  138.8245  161.1359 C.3     1  UNL1        0.0511
      5 C         139.8868  139.4442  162.2867 C.2     1  UNL1       -0.0037
      6 C         139.5677  140.9098  162.2710 C.2     1  UNL1        0.0784
      7 N         138.8361  141.2384  163.5386 N.2     1  UNL1       -0.2519
      8 C         138.7031  139.9760  164.3377 C.2     1  UNL1        0.0627
      9 C         138.0745  139.6929  165.6699 C.3     1  UNL1        0.0717
     10 C         138.0954  138.3010  166.2284 C.2     1  UNL1       -0.0198
     11 C         138.7448  137.1921  165.4547 C.2     1  UNL1       -0.0042
     12 C         139.3733  137.4751  164.1225 C.2     1  UNL1        0.0006
     13 C         139.3525  138.8671  163.5640 C.2     1  UNL1        0.0111
     14 H         141.6092  141.6300  159.8722 H       1  UNL1        0.1245
     15 C         139.3122  142.7944  161.9525 C.ar    1  UNL1        0.2023
     16 N         138.0179  143.4850  161.6400 N.ar    1  UNL1       -0.0586
     17 O         137.7220  144.4423  162.7563 O.2     1  UNL1       -0.3373
     18 C         138.8335  144.3433  163.7587 C.ar    1  UNL1        0.2369
     19 C         138.9430  145.1254  165.0340 C.3     1  UNL1        0.0978
     20 N         139.8164  143.3248  163.2619 N.ar    1  UNL1       -0.1928
     21 C         141.7756  139.0507  158.8186 C.ar    1  UNL1        0.1319
     22 N         141.6752  137.6213  158.3750 N.ar    1  UNL1       -0.2282
     23 C         142.5787  137.4387  157.1916 C.ar    1  UNL1        0.1171
     24 C         143.2375  138.7552  156.9039 C.ar    1  UNL1        0.0942
     25 N         142.7411  139.7515  157.9094 N.ar    1  UNL1       -0.3385
     26 H         143.0031  140.6990  157.9632 H       1  UNL1        0.1672
     27 C         142.7868  136.1635  156.4297 C.ar    1  UNL1        0.1006
     28 C         142.4663  136.1037  154.9655 C.ar    1  UNL1        0.0230
     29 C         142.6744  134.8285  154.2036 C.ar    1  UNL1        0.0328
     30 C         143.2031  133.6131  154.9059 C.ar    1  UNL1        0.1592
     31 F         143.4112  132.3378  154.1440 F       1  UNL1       -0.2025
     32 C         143.5236  133.6728  156.3700 C.ar    1  UNL1        0.1284
     33 N         143.3155  134.9480  157.1319 N.ar    1  UNL1       -0.2399
     34 N         140.0161  144.5056  158.3654 N.ar    1  UNL1       -0.2497
     35 C         139.5735  143.1641  158.8701 C.ar    1  UNL1        0.0944
     36 C         140.1679  142.9623  160.2325 C.ar    1  UNL1        0.0423
     37 C         140.9777  144.1790  160.5698 C.ar    1  UNL1        0.1194
     38 N         140.8839  145.1328  159.4159 N.ar    1  UNL1       -0.1679
     39 C         139.9250  146.5659  156.7853 C.3     1  UNL1        0.0284
     40 C         139.6543  145.1131  157.0425 C.3     1  UNL1        0.1276
@<TRIPOS>BOND
     1    39    40    1
     2    40    34    1
     3    34    35   ar
     4    35    36   ar
     5     1    36    1
     6     1    15    1
     7    15    16   ar
     8    16    17   ar
     9    17    18   ar
    10    18    19    1
    11    18    20   ar
    12     1     2    1
    13     2     3    1
    14     3    21    1
    15    21    22   ar
    16    22    23   ar
    17    23    27    1
    18    27    28   ar
    19    28    29   ar
    20    29    30   ar
    21    30    31    1
    22    30    32   ar
    23    32    33   ar
    24    23    24   ar
    25    24    25   ar
    26     3     4    1
    27     4     5    1
    28     5     6    2
    29     6     7    1
    30     7     8    2
    31     8     9    1
    32     9    10    1
    33    10    11    2
    34    11    12    1
    35    12    13    2
    36    36    37   ar
    37    37    38   ar
    38    38    34   ar
    39     6     1    1
    40    13     8    1
    41    20    15   ar
    42    25    21   ar
    43    13     5    1
    44    33    27   ar
    45     2    14    1
    46    25    26    1
@<TRIPOS>MOLECULE
*****
 40 46 0 0 0
SMALL
GASTEIGER

@<TRIPOS>ATOM
      1 C         142.4399  142.6169  160.1609 C.3     1  UNL1        0.1558
      2 N         141.9044  143.2508  158.9113 N.3     1  UNL1       -0.2809
      3 C         140.7265  144.1766  158.9855 C.3     1  UNL1        0.1166
      4 C         140.0842  144.4685  160.3092 C.3     1  UNL1        0.0511
      5 C         140.6197  143.8346  161.5588 C.2     1  UNL1       -0.0037
      6 C         141.7976  142.9089  161.4846 C.2     1  UNL1        0.0784
      7 N         142.1029  142.4350  162.8747 N.2     1  UNL1       -0.2519
      8 C         141.1138  143.0680  163.8079 C.2     1  UNL1        0.0627
      9 C         140.9294  142.9684  165.2932 C.3     1  UNL1        0.0717
     10 C         139.8283  143.7339  165.9651 C.2     1  UNL1       -0.0198
     11 C         138.9116  144.5989  165.1519 C.2     1  UNL1       -0.0042
     12 C         139.0960  144.6985  163.6666 C.2     1  UNL1        0.0006
     13 C         140.1971  143.9330  162.9946 C.2     1  UNL1        0.0111
     14 H         141.6420  142.4901  158.2845 H       1  UNL1        0.1245
     15 C         143.3026  141.7808  161.0591 C.ar    1  UNL1        0.2023
     16 N         144.6753  142.1387  161.5463 N.ar    1  UNL1       -0.0586
     17 O         145.1650  141.0190  162.4161 O.2     1  UNL1       -0.3373
     18 C         144.0949  139.9692  162.4666 C.ar    1  UNL1        0.2369
     19 C         144.1637  138.6757  163.2229 C.3     1  UNL1        0.0978
     20 N         142.9438  140.4400  161.6279 N.ar    1  UNL1       -0.1928
     21 C         140.1909  144.8105  157.7359 C.ar    1  UNL1        0.1319
     22 N         140.3906  146.2364  157.3154 N.ar    1  UNL1       -0.2282
     23 C         139.6847  146.4369  156.0071 C.ar    1  UNL1        0.1171
     24 C         139.0489  145.1350  155.6191 C.ar    1  UNL1        0.0942
     25 N         139.3617  144.1297  156.6876 N.ar    1  UNL1       -0.3385
     26 H         139.0734  143.1885  156.6988 H       1  UNL1        0.1672
     27 C         139.6252  147.7151  155.2242 C.ar    1  UNL1        0.1006
     28 C         140.2826  147.8018  153.8788 C.ar    1  UNL1        0.0230
     29 C         140.2232  149.0799  153.0959 C.ar    1  UNL1        0.0328
     30 C         139.5062  150.2713  153.6586 C.ar    1  UNL1        0.1592
     31 F         139.4467  151.5495  152.8757 F       1  UNL1       -0.2025
     32 C         138.8488  150.1846  155.0040 C.ar    1  UNL1        0.1284
     33 N         138.9083  148.9065  155.7869 N.ar    1  UNL1       -0.2399
     34 N         145.1495  141.8114  157.5011 N.ar    1  UNL1       -0.2497
     35 C         144.4503  142.7813  158.4069 C.ar    1  UNL1        0.0944
     36 C         143.3819  142.0346  159.1492 C.ar    1  UNL1        0.0423
     37 C         143.4207  140.6033  158.7020 C.ar    1  UNL1        0.1194
     38 N         144.5132  140.4654  157.6834 N.ar    1  UNL1       -0.1679
     39 C         147.4890  142.8642  157.0902 C.3     1  UNL1        0.0284
     40 C         146.2856  142.1315  156.5753 C.3     1  UNL1        0.1276
@<TRIPOS>BOND
     1    39    40    1
     2    40    34    1
     3    34    35   ar
     4    35    36   ar
     5     1    36    1
     6     1    15    1
     7    15    16   ar
     8    16    17   ar
     9    17    18   ar
    10    18    19    1
    11    18    20   ar
    12     1     2    1
    13     2     3    1
    14     3    21    1
    15    21    22   ar
    16    22    23   ar
    17    23    27    1
    18    27    28   ar
    19    28    29   ar
    20    29    30   ar
    21    30    31    1
    22    30    32   ar
    23    32    33   ar
    24    23    24   ar
    25    24    25   ar
    26     3     4    1
    27     4     5    1
    28     5     6    2
    29     6     7    1
    30     7     8    2
    31     8     9    1
    32     9    10    1
    33    10    11    2
    34    11    12    1
    35    12    13    2
    36    36    37   ar
    37    37    38   ar
    38    38    34   ar
    39     6     1    1
    40    13     8    1
    41    20    15   ar
    42    25    21   ar
    43    13     5    1
    44    33    27   ar
    45     2    14    1
    46    25    26    1
@<TRIPOS>MOLECULE
*****
 40 46 0 0 0
SMALL
GASTEIGER

@<TRIPOS>ATOM
      1 C         141.5793  141.9463  159.0398 C.3     1  UNL1        0.1558
      2 N         141.4716  140.6843  158.2363 N.3     1  UNL1       -0.2809
      3 C         142.2087  139.4526  158.6720 C.3     1  UNL1        0.1166
      4 C         143.0534  139.4830  159.9112 C.3     1  UNL1        0.0511
      5 C         143.1610  140.7450  160.7147 C.2     1  UNL1       -0.0037
      6 C         142.4240  141.9767  160.2790 C.2     1  UNL1        0.0784
      7 N         142.7192  143.0669  161.2661 N.2     1  UNL1       -0.2519
      8 C         143.6386  142.5090  162.3118 C.2     1  UNL1        0.0627
      9 C         144.2625  143.1224  163.5302 C.3     1  UNL1        0.0717
     10 C         145.1594  142.3007  164.4078 C.2     1  UNL1       -0.0198
     11 C         145.4325  140.8656  164.0670 C.2     1  UNL1       -0.0042
     12 C         144.8086  140.2523  162.8486 C.2     1  UNL1        0.0006
     13 C         143.9117  141.0740  161.9710 C.2     1  UNL1        0.0111
     14 H         141.7980  140.9054  157.2956 H       1  UNL1        0.1245
     15 C         141.3682  143.3695  159.4643 C.ar    1  UNL1        0.2023
     16 N         142.1359  144.5598  158.9709 N.ar    1  UNL1       -0.0586
     17 O         141.5944  145.7781  159.6584 O.2     1  UNL1       -0.3373
     18 C         140.4919  145.3406  160.5766 C.ar    1  UNL1        0.2369
     19 C         139.6730  146.2348  161.4597 C.3     1  UNL1        0.0978
     20 N         140.3521  143.8520  160.4566 N.ar    1  UNL1       -0.1928
     21 C         142.1010  138.1905  157.8684 C.ar    1  UNL1        0.1319
     22 N         143.0266  137.0129  157.9483 N.ar    1  UNL1       -0.2282
     23 C         142.5466  135.9791  156.9732 C.ar    1  UNL1        0.1171
     24 C         141.3243  136.5178  156.2907 C.ar    1  UNL1        0.0942
     25 N         141.0490  137.8846  156.8440 N.ar    1  UNL1       -0.3385
     26 H         140.3078  138.4768  156.5809 H       1  UNL1        0.1672
     27 C         143.1780  134.6414  156.7243 C.ar    1  UNL1        0.1006
     28 C         142.9872  133.9560  155.4037 C.ar    1  UNL1        0.0230
     29 C         143.6186  132.6184  155.1548 C.ar    1  UNL1        0.0328
     30 C         144.4408  131.9661  156.2265 C.ar    1  UNL1        0.1592
     31 F         145.0722  130.6283  155.9776 F       1  UNL1       -0.2025
     32 C         144.6316  132.6514  157.5471 C.ar    1  UNL1        0.1284
     33 N         144.0002  133.9891  157.7960 N.ar    1  UNL1       -0.2399
     34 N         138.6556  142.9371  156.6871 N.ar    1  UNL1       -0.2497
     35 C         139.1620  142.3803  157.9847 C.ar    1  UNL1        0.0944
     36 C         140.6613  142.4102  157.9481 C.ar    1  UNL1        0.0423
     37 C         141.0814  142.9855  156.6280 C.ar    1  UNL1        0.1194
     38 N         139.8417  143.3111  155.8487 N.ar    1  UNL1       -0.1679
     39 C         136.8587  143.7183  154.9809 C.3     1  UNL1        0.0284
     40 C         137.2156  143.0926  156.2967 C.3     1  UNL1        0.1276
@<TRIPOS>BOND
     1    39    40    1
     2    40    34    1
     3    34    35   ar
     4    35    36   ar
     5     1    36    1
     6     1    15    1
     7    15    16   ar
     8    16    17   ar
     9    17    18   ar
    10    18    19    1
    11    18    20   ar
    12     1     2    1
    13     2     3    1
    14     3    21    1
    15    21    22   ar
    16    22    23   ar
    17    23    27    1
    18    27    28   ar
    19    28    29   ar
    20    29    30   ar
    21    30    31    1
    22    30    32   ar
    23    32    33   ar
    24    23    24   ar
    25    24    25   ar
    26     3     4    1
    27     4     5    1
    28     5     6    2
    29     6     7    1
    30     7     8    2
    31     8     9    1
    32     9    10    1
    33    10    11    2
    34    11    12    1
    35    12    13    2
    36    36    37   ar
    37    37    38   ar
    38    38    34   ar
    39     6     1    1
    40    13     8    1
    41    20    15   ar
    42    25    21   ar
    43    13     5    1
    44    33    27   ar
    45     2    14    1
    46    25    26    1
@<TRIPOS>MOLECULE
*****
 40 46 0 0 0
SMALL
GASTEIGER

@<TRIPOS>ATOM
      1 C         140.6629  141.0153  159.9322 C.3     1  UNL1        0.1558
      2 N         141.1114  140.1116  158.8222 N.3     1  UNL1       -0.2809
      3 C         142.5182  139.5914  158.8007 C.3     1  UNL1        0.1166
      4 C         143.4764  139.9749  159.8892 C.3     1  UNL1        0.0511
      5 C         143.0278  140.8786  160.9992 C.2     1  UNL1       -0.0037
      6 C         141.6211  141.3988  161.0207 C.2     1  UNL1        0.0784
      7 N         141.4662  142.2664  162.2345 N.2     1  UNL1       -0.2519
      8 C         142.7773  142.2823  162.9632 C.2     1  UNL1        0.0627
      9 C         143.2169  142.9671  164.2233 C.3     1  UNL1        0.0717
     10 C         144.6217  142.7941  164.7199 C.2     1  UNL1       -0.0198
     11 C         145.5868  141.9364  163.9564 C.2     1  UNL1       -0.0042
     12 C         145.1471  141.2517  162.6963 C.2     1  UNL1        0.0006
     13 C         143.7424  141.4246  162.1997 C.2     1  UNL1        0.0111
     14 H         140.9738  140.6243  157.9512 H       1  UNL1        0.1245
     15 C         139.7744  141.8916  160.7646 C.ar    1  UNL1        0.2023
     16 N         139.4955  143.3457  160.5250 N.ar    1  UNL1       -0.0586
     17 O         138.5576  143.8203  161.5951 O.2     1  UNL1       -0.3373
     18 C         138.2569  142.6594  162.4961 C.ar    1  UNL1        0.2369
     19 C         137.3613  142.6858  163.6991 C.3     1  UNL1        0.0978
     20 N         139.0089  141.4673  161.9828 N.ar    1  UNL1       -0.1928
     21 C         142.9668  138.6876  157.6907 C.ar    1  UNL1        0.1319
     22 N         142.6728  137.2214  157.5743 N.ar    1  UNL1       -0.2282
     23 C         143.3124  136.7190  156.3139 C.ar    1  UNL1        0.1171
     24 C         144.0017  137.8748  155.6514 C.ar    1  UNL1        0.0942
     25 N         143.7881  139.0915  156.5023 N.ar    1  UNL1       -0.3385
     26 H         144.1273  139.9963  156.3138 H       1  UNL1        0.1672
     27 C         143.2701  135.3084  155.8054 C.ar    1  UNL1        0.1006
     28 C         142.5663  134.9961  154.5181 C.ar    1  UNL1        0.0230
     29 C         142.5240  133.5856  154.0095 C.ar    1  UNL1        0.0328
     30 C         143.1855  132.4875  154.7882 C.ar    1  UNL1        0.1592
     31 F         143.1432  131.0769  154.2797 F       1  UNL1       -0.2025
     32 C         143.8893  132.7998  156.0756 C.ar    1  UNL1        0.1284
     33 N         143.9316  134.2103  156.5841 N.ar    1  UNL1       -0.2399
     34 N         137.7042  141.3471  157.4419 N.ar    1  UNL1       -0.2497
     35 C         139.0682  141.7518  157.9173 C.ar    1  UNL1        0.0944
     36 C         139.3962  140.9362  159.1328 C.ar    1  UNL1        0.0423
     37 C         138.2349  140.0275  159.4085 C.ar    1  UNL1        0.1194
     38 N         137.1893  140.2815  158.3634 N.ar    1  UNL1       -0.1679
     39 C         137.1093  143.3660  155.9187 C.3     1  UNL1        0.0284
     40 C         136.9820  141.9094  156.2535 C.3     1  UNL1        0.1276
@<TRIPOS>BOND
     1    39    40    1
     2    40    34    1
     3    34    35   ar
     4    35    36   ar
     5     1    36    1
     6     1    15    1
     7    15    16   ar
     8    16    17   ar
     9    17    18   ar
    10    18    19    1
    11    18    20   ar
    12     1     2    1
    13     2     3    1
    14     3    21    1
    15    21    22   ar
    16    22    23   ar
    17    23    27    1
    18    27    28   ar
    19    28    29   ar
    20    29    30   ar
    21    30    31    1
    22    30    32   ar
    23    32    33   ar
    24    23    24   ar
    25    24    25   ar
    26     3     4    1
    27     4     5    1
    28     5     6    2
    29     6     7    1
    30     7     8    2
    31     8     9    1
    32     9    10    1
    33    10    11    2
    34    11    12    1
    35    12    13    2
    36    36    37   ar
    37    37    38   ar
    38    38    34   ar
    39     6     1    1
    40    13     8    1
    41    20    15   ar
    42    25    21   ar
    43    13     5    1
    44    33    27   ar
    45     2    14    1
    46    25    26    1
@<TRIPOS>MOLECULE
*****
 40 46 0 0 0
SMALL
GASTEIGER

@<TRIPOS>ATOM
      1 C         141.7213  141.8294  160.5077 C.3     1  UNL1        0.1558
      2 N         141.3459  142.5165  159.2283 N.3     1  UNL1       -0.2809
      3 C         140.4210  143.6972  159.2546 C.3     1  UNL1        0.1166
      4 C         139.8716  144.1906  160.5602 C.3     1  UNL1        0.0511
      5 C         140.2470  143.5034  161.8396 C.2     1  UNL1       -0.0037
      6 C         141.1719  142.3228  161.8133 C.2     1  UNL1        0.0784
      7 N         141.3622  141.8516  163.2246 N.2     1  UNL1       -0.2519
      8 C         140.5549  142.7410  164.1231 C.2     1  UNL1        0.0627
      9 C         140.3584  142.7531  165.6101 C.3     1  UNL1        0.0717
     10 C         139.4726  143.7862  166.2411 C.2     1  UNL1       -0.0198
     11 C         138.7834  144.8071  165.3851 C.2     1  UNL1       -0.0042
     12 C         138.9799  144.7949  163.8981 C.2     1  UNL1        0.0006
     13 C         139.8657  143.7619  163.2671 C.2     1  UNL1        0.0111
     14 H         140.9083  141.8129  158.6335 H       1  UNL1        0.1245
     15 C         142.3653  140.8530  161.4470 C.ar    1  UNL1        0.2023
     16 N         141.8849  139.4625  161.7389 N.ar    1  UNL1       -0.0586
     17 O         142.8255  138.8460  162.7316 O.2     1  UNL1       -0.3373
     18 C         143.8871  139.8556  163.0531 C.ar    1  UNL1        0.2369
     19 C         145.0322  139.6593  164.0020 C.3     1  UNL1        0.0978
     20 N         143.6027  141.0961  162.2591 N.ar    1  UNL1       -0.1928
     21 C         140.0455  144.3844  157.9752 C.ar    1  UNL1        0.1319
     22 N         140.0842  145.8627  157.7243 N.ar    1  UNL1       -0.2282
     23 C         139.6280  146.1060  156.3162 C.ar    1  UNL1        0.1171
     24 C         139.3073  144.7780  155.6969 C.ar    1  UNL1        0.0942
     25 N         139.5653  143.7140  156.7222 N.ar    1  UNL1       -0.3385
     26 H         139.4413  142.7456  156.5952 H       1  UNL1        0.1672
     27 C         139.5128  147.4426  155.6452 C.ar    1  UNL1        0.1006
     28 C         140.1630  147.6716  154.3130 C.ar    1  UNL1        0.0230
     29 C         140.0478  149.0081  153.6420 C.ar    1  UNL1        0.0328
     30 C         139.2823  150.1157  154.3032 C.ar    1  UNL1        0.1592
     31 F         139.1670  151.4524  153.6322 F       1  UNL1       -0.2025
     32 C         138.6321  149.8868  155.6354 C.ar    1  UNL1        0.1284
     33 N         138.7473  148.5502  156.3064 N.ar    1  UNL1       -0.2399
     34 N         143.0583  139.3420  157.8448 N.ar    1  UNL1       -0.2497
     35 C         141.9362  139.9027  158.6674 C.ar    1  UNL1        0.0944
     36 C         142.4944  140.9969  159.5283 C.ar    1  UNL1        0.0423
     37 C         143.9615  141.1124  159.2378 C.ar    1  UNL1        0.1194
     38 N         144.3100  140.0896  158.1973 N.ar    1  UNL1       -0.1679
     39 C         142.5745  136.8486  157.2980 C.3     1  UNL1        0.0284
     40 C         142.9480  138.2290  156.8452 C.3     1  UNL1        0.1276
@<TRIPOS>BOND
     1    39    40    1
     2    40    34    1
     3    34    35   ar
     4    35    36   ar
     5     1    36    1
     6     1    15    1
     7    15    16   ar
     8    16    17   ar
     9    17    18   ar
    10    18    19    1
    11    18    20   ar
    12     1     2    1
    13     2     3    1
    14     3    21    1
    15    21    22   ar
    16    22    23   ar
    17    23    27    1
    18    27    28   ar
    19    28    29   ar
    20    29    30   ar
    21    30    31    1
    22    30    32   ar
    23    32    33   ar
    24    23    24   ar
    25    24    25   ar
    26     3     4    1
    27     4     5    1
    28     5     6    2
    29     6     7    1
    30     7     8    2
    31     8     9    1
    32     9    10    1
    33    10    11    2
    34    11    12    1
    35    12    13    2
    36    36    37   ar
    37    37    38   ar
    38    38    34   ar
    39     6     1    1
    40    13     8    1
    41    20    15   ar
    42    25    21   ar
    43    13     5    1
    44    33    27   ar
    45     2    14    1
    46    25    26    1
@<TRIPOS>MOLECULE
*****
 40 46 0 0 0
SMALL
GASTEIGER

@<TRIPOS>ATOM
      1 C         142.5492  139.8370  159.6875 C.3     1  UNL1        0.1558
      2 N         143.2260  140.3300  158.4430 N.3     1  UNL1       -0.2809
      3 C         144.1302  141.5253  158.5043 C.3     1  UNL1        0.1166
      4 C         144.3575  142.2276  159.8101 C.3     1  UNL1        0.0511
      5 C         143.6807  141.7346  161.0546 C.2     1  UNL1       -0.0037
      6 C         142.7765  140.5393  160.9933 C.2     1  UNL1        0.0784
      7 N         142.2503  140.2849  162.3747 N.2     1  UNL1       -0.2519
      8 C         142.8292  141.3230  163.2898 C.2     1  UNL1        0.0627
      9 C         142.6656  141.5681  164.7605 C.3     1  UNL1        0.0717
     10 C         143.3861  142.7092  165.4154 C.2     1  UNL1       -0.0198
     11 C         144.2701  143.6051  164.5995 C.2     1  UNL1       -0.0042
     12 C         144.4337  143.3600  163.1287 C.2     1  UNL1        0.0006
     13 C         143.7133  142.2189  162.4739 C.2     1  UNL1        0.0111
     14 H         142.4881  140.5529  157.7751 H       1  UNL1        0.1245
     15 C         141.6897  138.9991  160.5871 C.ar    1  UNL1        0.2023
     16 N         142.1204  137.7602  161.3148 N.ar    1  UNL1       -0.0586
     17 O         140.9454  137.2485  162.0943 O.2     1  UNL1       -0.3373
     18 C         139.7886  138.1711  161.8484 C.ar    1  UNL1        0.2369
     19 C         138.4133  138.0355  162.4316 C.3     1  UNL1        0.0978
     20 N         140.2486  139.2531  160.9168 N.ar    1  UNL1       -0.1928
     21 C         144.8071  142.0183  157.2597 C.ar    1  UNL1        0.1319
     22 N         146.2656  141.8827  156.9367 N.ar    1  UNL1       -0.2282
     23 C         146.5042  142.5140  155.5971 C.ar    1  UNL1        0.1171
     24 C         145.1933  143.0398  155.0923 C.ar    1  UNL1        0.0942
     25 N         144.1444  142.7334  156.1199 N.ar    1  UNL1       -0.3385
     26 H         143.1887  142.9616  156.0572 H       1  UNL1        0.1672
     27 C         147.8225  142.6038  154.8870 C.ar    1  UNL1        0.1006
     28 C         147.9920  143.5522  153.7373 C.ar    1  UNL1        0.0230
     29 C         149.3102  143.6420  153.0272 C.ar    1  UNL1        0.0328
     30 C         150.4589  142.7834  153.4668 C.ar    1  UNL1        0.1592
     31 F         151.7772  142.8732  152.7567 F       1  UNL1       -0.2025
     32 C         150.2894  141.8351  154.6166 C.ar    1  UNL1        0.1284
     33 N         148.9712  141.7453  155.3266 N.ar    1  UNL1       -0.2399
     34 N         141.8802  136.9706  157.1574 N.ar    1  UNL1       -0.2497
     35 C         142.7921  137.7024  158.0971 C.ar    1  UNL1        0.0944
     36 C         142.0234  138.8437  158.6942 C.ar    1  UNL1        0.0423
     37 C         140.6364  138.8173  158.1234 C.ar    1  UNL1        0.1194
     38 N         140.5480  137.6597  157.1736 N.ar    1  UNL1       -0.1679
     39 C         143.1898  134.7421  156.8953 C.3     1  UNL1        0.0284
     40 C         142.2379  135.7619  156.3442 C.3     1  UNL1        0.1276
@<TRIPOS>BOND
     1    39    40    1
     2    40    34    1
     3    34    35   ar
     4    35    36   ar
     5     1    36    1
     6     1    15    1
     7    15    16   ar
     8    16    17   ar
     9    17    18   ar
    10    18    19    1
    11    18    20   ar
    12     1     2    1
    13     2     3    1
    14     3    21    1
    15    21    22   ar
    16    22    23   ar
    17    23    27    1
    18    27    28   ar
    19    28    29   ar
    20    29    30   ar
    21    30    31    1
    22    30    32   ar
    23    32    33   ar
    24    23    24   ar
    25    24    25   ar
    26     3     4    1
    27     4     5    1
    28     5     6    2
    29     6     7    1
    30     7     8    2
    31     8     9    1
    32     9    10    1
    33    10    11    2
    34    11    12    1
    35    12    13    2
    36    36    37   ar
    37    37    38   ar
    38    38    34   ar
    39     6     1    1
    40    13     8    1
    41    20    15   ar
    42    25    21   ar
    43    13     5    1
    44    33    27   ar
    45     2    14    1
    46    25    26    1
@<TRIPOS>MOLECULE
*****
 40 46 0 0 0
SMALL
GASTEIGER

@<TRIPOS>ATOM
      1 C         139.4583  140.9902  159.4394 C.3     1  UNL1        0.1558
      2 N         139.6963  139.6656  158.7772 N.3     1  UNL1       -0.2809
      3 C         140.1896  139.6126  157.3616 C.3     1  UNL1        0.1166
      4 C         140.4448  140.8844  156.6083 C.3     1  UNL1        0.0511
      5 C         140.2068  142.2091  157.2705 C.2     1  UNL1       -0.0037
      6 C         139.7136  142.2620  158.6861 C.2     1  UNL1        0.0784
      7 N         139.5706  143.7040  159.0734 N.2     1  UNL1       -0.2519
      8 C         139.9755  144.5423  157.8973 C.2     1  UNL1        0.0627
      9 C         140.0369  146.0276  157.6970 C.3     1  UNL1        0.0717
     10 C         140.4916  146.5889  156.3824 C.2     1  UNL1       -0.0198
     11 C         140.8848  145.6649  155.2681 C.2     1  UNL1       -0.0042
     12 C         140.8233  144.1797  155.4684 C.2     1  UNL1        0.0006
     13 C         140.3687  143.6184  156.7830 C.2     1  UNL1        0.0111
     14 H         138.8096  139.1619  158.7991 H       1  UNL1        0.1245
     15 C         139.0868  141.9945  160.4900 C.ar    1  UNL1        0.2023
     16 N         137.7539  142.6667  160.6350 N.ar    1  UNL1       -0.0586
     17 O         137.8265  143.5904  161.8147 O.2     1  UNL1       -0.3373
     18 C         139.2043  143.4890  162.3987 C.ar    1  UNL1        0.2369
     19 C         139.7138  144.2418  163.5919 C.3     1  UNL1        0.0978
     20 N         139.9833  142.5026  161.5800 N.ar    1  UNL1       -0.1928
     21 C         140.4276  138.2879  156.6993 C.ar    1  UNL1        0.1319
     22 N         141.5456  137.3365  157.0075 N.ar    1  UNL1       -0.2282
     23 C         141.3984  136.1426  156.1113 C.ar    1  UNL1        0.1171
     24 C         140.1896  136.3563  155.2493 C.ar    1  UNL1        0.0942
     25 N         139.5896  137.6822  155.6128 N.ar    1  UNL1       -0.3385
     26 H         138.7867  138.0842  155.2091 H       1  UNL1        0.1672
     27 C         142.3016  134.9453  156.0822 C.ar    1  UNL1        0.1006
     28 C         142.2944  134.0291  154.8945 C.ar    1  UNL1        0.0230
     29 C         143.1975  132.8319  154.8654 C.ar    1  UNL1        0.0328
     30 C         144.1079  132.5509  156.0239 C.ar    1  UNL1        0.1592
     31 F         145.0111  131.3536  155.9948 F       1  UNL1       -0.2025
     32 C         144.1151  133.4671  157.2115 C.ar    1  UNL1        0.1284
     33 N         143.2120  134.6643  157.2407 N.ar    1  UNL1       -0.2399
     34 N         139.2076  138.5333  162.4337 N.ar    1  UNL1       -0.2497
     35 C         140.0211  139.3409  161.4662 C.ar    1  UNL1        0.0944
     36 C         139.0741  140.0673  160.5576 C.ar    1  UNL1        0.0423
     37 C         137.6753  139.7087  160.9637 C.ar    1  UNL1        0.1194
     38 N         137.7578  138.7606  162.1232 N.ar    1  UNL1       -0.1679
     39 C         141.2107  137.3186  163.5572 C.3     1  UNL1        0.0284
     40 C         139.7489  137.6530  163.5210 C.3     1  UNL1        0.1276
@<TRIPOS>BOND
     1    39    40    1
     2    40    34    1
     3    34    35   ar
     4    35    36   ar
     5     1    36    1
     6     1    15    1
     7    15    16   ar
     8    16    17   ar
     9    17    18   ar
    10    18    19    1
    11    18    20   ar
    12     1     2    1
    13     2     3    1
    14     3    21    1
    15    21    22   ar
    16    22    23   ar
    17    23    27    1
    18    27    28   ar
    19    28    29   ar
    20    29    30   ar
    21    30    31    1
    22    30    32   ar
    23    32    33   ar
    24    23    24   ar
    25    24    25   ar
    26     3     4    1
    27     4     5    1
    28     5     6    2
    29     6     7    1
    30     7     8    2
    31     8     9    1
    32     9    10    1
    33    10    11    2
    34    11    12    1
    35    12    13    2
    36    36    37   ar
    37    37    38   ar
    38    38    34   ar
    39     6     1    1
    40    13     8    1
    41    20    15   ar
    42    25    21   ar
    43    13     5    1
    44    33    27   ar
    45     2    14    1
    46    25    26    1
@<TRIPOS>MOLECULE
*****
 40 46 0 0 0
SMALL
GASTEIGER

@<TRIPOS>ATOM
      1 C         141.8723  143.7366  159.3991 C.3     1  UNL1        0.1558
      2 N         142.6002  143.4365  158.1224 N.3     1  UNL1       -0.2809
      3 C         143.9649  142.8155  158.1654 C.3     1  UNL1        0.1166
      4 C         144.6017  142.4946  159.4851 C.3     1  UNL1        0.0511
      5 C         143.8738  142.7947  160.7618 C.2     1  UNL1       -0.0037
      6 C         142.5091  143.4157  160.7188 C.2     1  UNL1        0.0784
      7 N         142.0373  143.5962  162.1312 N.2     1  UNL1       -0.2519
      8 C         143.1105  143.0868  163.0471 C.2     1  UNL1        0.0627
      9 C         143.2008  143.0100  164.5423 C.3     1  UNL1        0.0717
     10 C         144.4261  142.4378  165.1913 C.2     1  UNL1       -0.0198
     11 C         145.5611  141.9424  164.3449 C.2     1  UNL1       -0.0042
     12 C         145.4708  142.0192  162.8496 C.2     1  UNL1        0.0006
     13 C         144.2455  142.5914  162.2007 C.2     1  UNL1        0.0111
     14 H         142.6946  144.3205  157.6224 H       1  UNL1        0.1245
     15 C         140.7930  144.2046  160.3298 C.ar    1  UNL1        0.2023
     16 N         140.5170  145.6277  160.7152 N.ar    1  UNL1       -0.0586
     17 O         139.3536  145.6342  161.6621 O.2     1  UNL1       -0.3373
     18 C         138.9107  144.2151  161.8620 C.ar    1  UNL1        0.2369
     19 C         137.7772  143.7596  162.7324 C.3     1  UNL1        0.0978
     20 N         139.8003  143.3316  161.0385 N.ar    1  UNL1       -0.1928
     21 C         144.6929  142.5153  156.8886 C.ar    1  UNL1        0.1319
     22 N         146.1757  142.3458  156.7381 N.ar    1  UNL1       -0.2282
     23 C         146.4651  142.0577  155.2948 C.ar    1  UNL1        0.1171
     24 C         145.1613  142.0492  154.5533 C.ar    1  UNL1        0.0942
     25 N         144.0660  142.3320  155.5383 N.ar    1  UNL1       -0.3385
     26 H         143.1044  142.3875  155.3344 H       1  UNL1        0.1672
     27 C         147.8206  141.8199  154.6978 C.ar    1  UNL1        0.1006
     28 C         149.0287  141.7503  155.5841 C.ar    1  UNL1        0.0230
     29 C         150.3841  141.5126  154.9871 C.ar    1  UNL1        0.0328
     30 C         150.5313  141.3444  153.5039 C.ar    1  UNL1        0.1592
     31 F         151.8867  141.1066  152.9069 F       1  UNL1       -0.2025
     32 C         149.3231  141.4140  152.6176 C.ar    1  UNL1        0.1284
     33 N         147.9678  141.6517  153.2146 N.ar    1  UNL1       -0.2399
     34 N         139.6469  145.6303  156.8443 N.ar    1  UNL1       -0.2497
     35 C         140.8211  145.5826  157.7766 C.ar    1  UNL1        0.0944
     36 C         140.8606  144.2200  158.4027 C.ar    1  UNL1        0.0423
     37 C         139.7109  143.4258  157.8574 C.ar    1  UNL1        0.1194
     38 N         138.9608  144.2975  156.8943 N.ar    1  UNL1       -0.1679
     39 C         140.0368  147.1895  154.8029 C.3     1  UNL1        0.0284
     40 C         139.2318  146.8049  156.0088 C.3     1  UNL1        0.1276
@<TRIPOS>BOND
     1    39    40    1
     2    40    34    1
     3    34    35   ar
     4    35    36   ar
     5     1    36    1
     6     1    15    1
     7    15    16   ar
     8    16    17   ar
     9    17    18   ar
    10    18    19    1
    11    18    20   ar
    12     1     2    1
    13     2     3    1
    14     3    21    1
    15    21    22   ar
    16    22    23   ar
    17    23    27    1
    18    27    28   ar
    19    28    29   ar
    20    29    30   ar
    21    30    31    1
    22    30    32   ar
    23    32    33   ar
    24    23    24   ar
    25    24    25   ar
    26     3     4    1
    27     4     5    1
    28     5     6    2
    29     6     7    1
    30     7     8    2
    31     8     9    1
    32     9    10    1
    33    10    11    2
    34    11    12    1
    35    12    13    2
    36    36    37   ar
    37    37    38   ar
    38    38    34   ar
    39     6     1    1
    40    13     8    1
    41    20    15   ar
    42    25    21   ar
    43    13     5    1
    44    33    27   ar
    45     2    14    1
    46    25    26    1
