@<TRIPOS>MOLECULE
*****
 27 29 0 0 0
SMALL
GASTEIGER

@<TRIPOS>ATOM
      1 N         141.0288  141.1893  166.5117 N.pl3   1  UNL1       -0.3021
      2 C         141.5296  141.8406  167.7667 C.ar    1  UNL1        0.0481
      3 C         140.6025  142.6746  168.6003 C.ar    1  UNL1        0.0145
      4 C         141.1033  143.3258  169.8553 C.ar    1  UNL1        0.0013
      5 C         142.5312  143.1431  170.2768 C.ar    1  UNL1        0.0001
      6 C         143.4584  142.3090  169.4432 C.ar    1  UNL1        0.0013
      7 C         142.9576  141.6578  168.1882 C.ar    1  UNL1        0.0145
      8 C         141.9933  140.5211  165.5772 C.3     1  UNL1        0.1095
      9 C         142.0539  140.9381  164.1376 C.3     1  UNL1        0.1073
     10 N         142.2220  142.3857  163.7825 N.3     1  UNL1       -0.2704
     11 C         141.6494  143.0701  162.5769 C.3     1  UNL1        0.0722
     12 C         142.0658  144.5105  162.6200 C.3     1  UNL1        0.0188
     13 C         142.8959  144.7163  163.8524 C.3     1  UNL1        0.0188
     14 C         142.9924  143.4031  164.5708 C.3     1  UNL1        0.0722
     15 C         141.9462  139.9075  163.0530 C.3     1  UNL1        0.1597
     16 O         142.1300  138.4547  163.3780 O.3     1  UNL1       -0.3523
     17 C         141.0473  137.4699  163.0496 C.3     1  UNL1        0.1421
     18 C         138.5575  137.9529  162.4857 C.3     1  UNL1        0.0026
     19 C         139.6393  137.7253  163.4996 C.3     1  UNL1        0.0297
     20 C         139.3132  137.7532  164.9634 C.3     1  UNL1        0.0026
     21 C         139.5636  141.2063  166.1911 C.3     1  UNL1        0.1177
     22 C         139.0189  142.2158  165.2245 C.ar    1  UNL1       -0.0024
     23 C         139.3032  143.6749  165.4242 C.ar    1  UNL1       -0.0026
     24 C         138.7585  144.6843  164.4576 C.ar    1  UNL1       -0.0003
     25 C         137.9296  144.2345  163.2911 C.ar    1  UNL1       -0.0000
     26 C         137.6454  142.7753  163.0914 C.ar    1  UNL1       -0.0003
     27 C         138.1900  141.7659  164.0580 C.ar    1  UNL1       -0.0026
@<TRIPOS>BOND
     1    18    19    1
     2    19    20    1
     3    19    17    1
     4    17    16    1
     5    16    15    1
     6    15     9    1
     7     9     8    1
     8     8     1    1
     9     1    21    1
    10    21    22    1
    11    22    23   ar
    12    23    24   ar
    13    24    25   ar
    14    25    26   ar
    15    26    27   ar
    16     1     2    1
    17     2     3   ar
    18     3     4   ar
    19     4     5   ar
    20     5     6   ar
    21     6     7   ar
    22     9    10    1
    23    10    11    1
    24    11    12    1
    25    12    13    1
    26    13    14    1
    27    27    22   ar
    28     7     2   ar
    29    14    10    1
@<TRIPOS>MOLECULE
*****
 27 29 0 0 0
SMALL
GASTEIGER

@<TRIPOS>ATOM
      1 N         141.7613  141.1084  164.9750 N.pl3   1  UNL1       -0.3021
      2 C         142.3774  142.4421  164.6718 C.ar    1  UNL1        0.0481
      3 C         141.5894  143.4811  163.9306 C.ar    1  UNL1        0.0145
      4 C         142.2055  144.8147  163.6274 C.ar    1  UNL1        0.0013
      5 C         143.6095  145.1093  164.0654 C.ar    1  UNL1        0.0001
      6 C         144.3975  144.0702  164.8067 C.ar    1  UNL1        0.0013
      7 C         143.7815  142.7366  165.1099 C.ar    1  UNL1        0.0145
      8 C         141.1105  140.3165  163.8799 C.3     1  UNL1        0.1095
      9 C         139.6234  140.1206  163.8780 C.3     1  UNL1        0.1073
     10 N         138.9873  139.1972  164.8743 N.3     1  UNL1       -0.2704
     11 C         138.2632  139.6096  166.1216 C.3     1  UNL1        0.0722
     12 C         137.7921  138.3665  166.8165 C.3     1  UNL1        0.0188
     13 C         138.2251  137.1859  165.9987 C.3     1  UNL1        0.0188
     14 C         138.9638  137.6994  164.7984 C.3     1  UNL1        0.0722
     15 C         138.7723  140.8481  162.8798 C.3     1  UNL1        0.1597
     16 O         137.6930  141.7775  163.3503 O.3     1  UNL1       -0.3523
     17 C         137.9234  142.6483  164.5498 C.3     1  UNL1        0.1421
     18 C         138.5118  144.9661  165.5655 C.3     1  UNL1        0.0026
     19 C         138.2079  144.1103  164.3716 C.3     1  UNL1        0.0297
     20 C         138.1884  144.7165  162.9997 C.3     1  UNL1        0.0026
     21 C         141.7961  140.5667  166.3733 C.3     1  UNL1        0.1177
     22 C         141.6837  141.5001  167.5423 C.ar    1  UNL1       -0.0024
     23 C         142.8114  141.6101  168.5252 C.ar    1  UNL1       -0.0026
     24 C         142.6991  142.5434  169.6941 C.ar    1  UNL1       -0.0003
     25 C         141.4590  143.3667  169.8800 C.ar    1  UNL1       -0.0000
     26 C         140.3313  143.2566  168.8971 C.ar    1  UNL1       -0.0003
     27 C         140.4437  142.3233  167.7282 C.ar    1  UNL1       -0.0026
@<TRIPOS>BOND
     1    18    19    1
     2    19    20    1
     3    19    17    1
     4    17    16    1
     5    16    15    1
     6    15     9    1
     7     9     8    1
     8     8     1    1
     9     1    21    1
    10    21    22    1
    11    22    23   ar
    12    23    24   ar
    13    24    25   ar
    14    25    26   ar
    15    26    27   ar
    16     1     2    1
    17     2     3   ar
    18     3     4   ar
    19     4     5   ar
    20     5     6   ar
    21     6     7   ar
    22     9    10    1
    23    10    11    1
    24    11    12    1
    25    12    13    1
    26    13    14    1
    27    27    22   ar
    28     7     2   ar
    29    14    10    1
@<TRIPOS>MOLECULE
*****
 27 29 0 0 0
SMALL
GASTEIGER

@<TRIPOS>ATOM
      1 N         141.0665  140.3822  166.4674 N.pl3   1  UNL1       -0.3021
      2 C         140.5913  140.9576  167.7686 C.ar    1  UNL1        0.0481
      3 C         139.6349  140.1833  168.6263 C.ar    1  UNL1        0.0145
      4 C         139.1598  140.7586  169.9275 C.ar    1  UNL1        0.0013
      5 C         139.6411  142.1083  170.3711 C.ar    1  UNL1        0.0001
      6 C         140.5976  142.8826  169.5134 C.ar    1  UNL1        0.0013
      7 C         141.0727  142.3073  168.2122 C.ar    1  UNL1        0.0145
      8 C         140.1372  140.3188  165.2915 C.3     1  UNL1        0.1095
      9 C         140.1327  141.4250  164.2786 C.3     1  UNL1        0.1073
     10 N         139.3207  142.6623  164.5229 N.3     1  UNL1       -0.2704
     11 C         139.6369  143.7430  165.5139 C.3     1  UNL1        0.0722
     12 C         138.5617  144.7848  165.4226 C.3     1  UNL1        0.0188
     13 C         137.5809  144.3480  164.3751 C.3     1  UNL1        0.0188
     14 C         138.0500  143.0362  163.8190 C.3     1  UNL1        0.0722
     15 C         140.9401  141.2939  163.0212 C.3     1  UNL1        0.1597
     16 O         141.8685  142.3971  162.6076 O.3     1  UNL1       -0.3523
     17 C         141.3422  143.5697  161.8342 C.3     1  UNL1        0.1421
     18 C         140.1678  145.8750  162.0712 C.3     1  UNL1        0.0026
     19 C         141.2432  144.9160  162.4882 C.3     1  UNL1        0.0297
     20 C         142.2195  145.3033  163.5591 C.3     1  UNL1        0.0026
     21 C         142.4708  139.8704  166.3419 C.3     1  UNL1        0.1177
     22 C         143.4686  140.6151  165.5052 C.ar    1  UNL1       -0.0024
     23 C         144.3163  139.8754  164.5132 C.ar    1  UNL1       -0.0026
     24 C         145.3140  140.6201  163.6766 C.ar    1  UNL1       -0.0003
     25 C         145.4640  142.1045  163.8320 C.ar    1  UNL1       -0.0000
     26 C         144.6163  142.8441  164.8241 C.ar    1  UNL1       -0.0003
     27 C         143.6186  142.0994  165.6607 C.ar    1  UNL1       -0.0026
@<TRIPOS>BOND
     1    18    19    1
     2    19    20    1
     3    19    17    1
     4    17    16    1
     5    16    15    1
     6    15     9    1
     7     9     8    1
     8     8     1    1
     9     1    21    1
    10    21    22    1
    11    22    23   ar
    12    23    24   ar
    13    24    25   ar
    14    25    26   ar
    15    26    27   ar
    16     1     2    1
    17     2     3   ar
    18     3     4   ar
    19     4     5   ar
    20     5     6   ar
    21     6     7   ar
    22     9    10    1
    23    10    11    1
    24    11    12    1
    25    12    13    1
    26    13    14    1
    27    27    22   ar
    28     7     2   ar
    29    14    10    1
@<TRIPOS>MOLECULE
*****
 27 29 0 0 0
SMALL
GASTEIGER

@<TRIPOS>ATOM
      1 N         141.3649  141.5674  164.8737 N.pl3   1  UNL1       -0.3021
      2 C         142.8268  141.4674  164.5532 C.ar    1  UNL1        0.0481
      3 C         143.6710  142.7064  164.5073 C.ar    1  UNL1        0.0145
      4 C         145.1330  142.6064  164.1869 C.ar    1  UNL1        0.0013
      5 C         145.7508  141.2674  163.9123 C.ar    1  UNL1        0.0001
      6 C         144.9065  140.0283  163.9582 C.ar    1  UNL1        0.0013
      7 C         143.4446  140.1283  164.2787 C.ar    1  UNL1        0.0145
      8 C         140.3432  141.2159  163.8331 C.3     1  UNL1        0.1095
      9 C         138.9405  140.8783  164.2432 C.3     1  UNL1        0.1073
     10 N         138.6590  139.5949  164.9668 N.3     1  UNL1       -0.2704
     11 C         138.9839  138.2157  164.4746 C.3     1  UNL1        0.0722
     12 C         138.5289  137.2337  165.5133 C.3     1  UNL1        0.0188
     13 C         137.9228  138.0061  166.6474 C.3     1  UNL1        0.0188
     14 C         138.0032  139.4654  166.3096 C.3     1  UNL1        0.0722
     15 C         137.8192  141.8241  163.9297 C.3     1  UNL1        0.1597
     16 O         137.9580  142.8047  162.8032 O.3     1  UNL1       -0.3523
     17 C         138.1234  144.2663  163.0973 C.3     1  UNL1        0.1421
     18 C         138.5815  144.9388  165.5647 C.3     1  UNL1        0.0026
     19 C         139.0758  144.7131  164.1665 C.3     1  UNL1        0.0297
     20 C         140.5225  144.9343  163.8377 C.3     1  UNL1        0.0026
     21 C         140.9246  142.0189  166.2346 C.3     1  UNL1        0.1177
     22 C         141.6227  141.5033  167.4582 C.ar    1  UNL1       -0.0024
     23 C         141.3968  140.0916  167.9118 C.ar    1  UNL1       -0.0026
     24 C         142.0949  139.5761  169.1352 C.ar    1  UNL1       -0.0003
     25 C         143.0189  140.4725  169.9051 C.ar    1  UNL1       -0.0000
     26 C         143.2449  141.8842  169.4515 C.ar    1  UNL1       -0.0003
     27 C         142.5467  142.3997  168.2280 C.ar    1  UNL1       -0.0026
@<TRIPOS>BOND
     1    18    19    1
     2    19    20    1
     3    19    17    1
     4    17    16    1
     5    16    15    1
     6    15     9    1
     7     9     8    1
     8     8     1    1
     9     1    21    1
    10    21    22    1
    11    22    23   ar
    12    23    24   ar
    13    24    25   ar
    14    25    26   ar
    15    26    27   ar
    16     1     2    1
    17     2     3   ar
    18     3     4   ar
    19     4     5   ar
    20     5     6   ar
    21     6     7   ar
    22     9    10    1
    23    10    11    1
    24    11    12    1
    25    12    13    1
    26    13    14    1
    27    27    22   ar
    28     7     2   ar
    29    14    10    1
@<TRIPOS>MOLECULE
*****
 27 29 0 0 0
SMALL
GASTEIGER

@<TRIPOS>ATOM
      1 N         142.7460  141.2894  166.5951 N.pl3   1  UNL1       -0.3021
      2 C         142.2485  142.0441  167.7921 C.ar    1  UNL1        0.0481
      3 C         140.8459  142.5753  167.8141 C.ar    1  UNL1        0.0145
      4 C         140.3484  143.3300  169.0111 C.ar    1  UNL1        0.0013
      5 C         141.2535  143.5536  170.1861 C.ar    1  UNL1        0.0001
      6 C         142.6562  143.0224  170.1642 C.ar    1  UNL1        0.0013
      7 C         143.1537  142.2677  168.9672 C.ar    1  UNL1        0.0145
      8 C         143.2401  142.0347  165.3907 C.3     1  UNL1        0.1095
      9 C         142.2739  142.4671  164.3279 C.3     1  UNL1        0.1073
     10 N         141.7754  141.4752  163.3191 N.3     1  UNL1       -0.2704
     11 C         140.3382  141.1506  163.0375 C.3     1  UNL1        0.0722
     12 C         140.3010  140.1086  161.9593 C.3     1  UNL1        0.0188
     13 C         141.7152  139.7891  161.5745 C.3     1  UNL1        0.0188
     14 C         142.6264  140.6337  162.4149 C.3     1  UNL1        0.0722
     15 C         141.8064  143.8913  164.2737 C.3     1  UNL1        0.1597
     16 O         141.1430  144.4164  163.0351 O.3     1  UNL1       -0.3523
     17 C         139.8297  145.1342  163.1346 C.3     1  UNL1        0.1421
     18 C         137.7040  143.6613  163.3838 C.3     1  UNL1        0.0026
     19 C         138.7308  144.5729  163.9876 C.3     1  UNL1        0.0297
     20 C         138.6589  144.9231  165.4443 C.3     1  UNL1        0.0026
     21 C         142.7495  139.7895  166.6024 C.3     1  UNL1        0.1177
     22 C         141.6535  139.0335  165.9116 C.ar    1  UNL1       -0.0024
     23 C         140.2186  139.3645  166.1972 C.ar    1  UNL1       -0.0026
     24 C         139.1227  138.6085  165.5063 C.ar    1  UNL1       -0.0003
     25 C         139.4616  137.5215  164.5298 C.ar    1  UNL1       -0.0000
     26 C         140.8964  137.1905  164.2442 C.ar    1  UNL1       -0.0003
     27 C         141.9923  137.9465  164.9350 C.ar    1  UNL1       -0.0026
@<TRIPOS>BOND
     1    18    19    1
     2    19    20    1
     3    19    17    1
     4    17    16    1
     5    16    15    1
     6    15     9    1
     7     9     8    1
     8     8     1    1
     9     1    21    1
    10    21    22    1
    11    22    23   ar
    12    23    24   ar
    13    24    25   ar
    14    25    26   ar
    15    26    27   ar
    16     1     2    1
    17     2     3   ar
    18     3     4   ar
    19     4     5   ar
    20     5     6   ar
    21     6     7   ar
    22     9    10    1
    23    10    11    1
    24    11    12    1
    25    12    13    1
    26    13    14    1
    27    27    22   ar
    28     7     2   ar
    29    14    10    1
@<TRIPOS>MOLECULE
*****
 27 29 0 0 0
SMALL
GASTEIGER

@<TRIPOS>ATOM
      1 N         140.4871  141.0689  166.1804 N.pl3   1  UNL1       -0.3021
      2 C         140.2631  141.5261  167.5914 C.ar    1  UNL1        0.0481
      3 C         140.5939  142.9353  167.9846 C.ar    1  UNL1        0.0145
      4 C         140.3699  143.3925  169.3955 C.ar    1  UNL1        0.0013
      5 C         139.8152  142.4405  170.4133 C.ar    1  UNL1        0.0001
      6 C         139.4844  141.0312  170.0201 C.ar    1  UNL1        0.0013
      7 C         139.7084  140.5740  168.6091 C.ar    1  UNL1        0.0145
      8 C         139.5133  141.4501  165.1050 C.3     1  UNL1        0.1095
      9 C         140.0068  141.7684  163.7248 C.3     1  UNL1        0.1073
     10 N         140.8367  142.9955  163.4895 N.3     1  UNL1       -0.2704
     11 C         141.9028  143.1522  162.4459 C.3     1  UNL1        0.0722
     12 C         142.4713  144.5349  162.5680 C.3     1  UNL1        0.0188
     13 C         141.7565  145.2328  163.6871 C.3     1  UNL1        0.0188
     14 C         140.7464  144.2814  164.2566 C.3     1  UNL1        0.0722
     15 C         139.6704  140.8596  162.5798 C.3     1  UNL1        0.1597
     16 O         140.5022  139.6383  162.3222 O.3     1  UNL1       -0.3523
     17 C         139.9319  138.2748  162.5779 C.3     1  UNL1        0.1421
     18 C         141.2847  136.9391  164.3488 C.3     1  UNL1        0.0026
     19 C         140.0349  137.6628  163.9436 C.3     1  UNL1        0.0297
     20 C         138.8881  137.7746  164.9039 C.3     1  UNL1        0.0026
     21 C         141.6848  140.2306  165.8448 C.3     1  UNL1        0.1177
     22 C         142.9045  140.8694  165.2496 C.ar    1  UNL1       -0.0024
     23 C         143.3715  142.2044  165.7492 C.ar    1  UNL1       -0.0026
     24 C         144.5911  142.8432  165.1540 C.ar    1  UNL1       -0.0003
     25 C         145.3438  142.1470  164.0591 C.ar    1  UNL1       -0.0000
     26 C         144.8768  140.8120  163.5595 C.ar    1  UNL1       -0.0003
     27 C         143.6572  140.1732  164.1547 C.ar    1  UNL1       -0.0026
@<TRIPOS>BOND
     1    18    19    1
     2    19    20    1
     3    19    17    1
     4    17    16    1
     5    16    15    1
     6    15     9    1
     7     9     8    1
     8     8     1    1
     9     1    21    1
    10    21    22    1
    11    22    23   ar
    12    23    24   ar
    13    24    25   ar
    14    25    26   ar
    15    26    27   ar
    16     1     2    1
    17     2     3   ar
    18     3     4   ar
    19     4     5   ar
    20     5     6   ar
    21     6     7   ar
    22     9    10    1
    23    10    11    1
    24    11    12    1
    25    12    13    1
    26    13    14    1
    27    27    22   ar
    28     7     2   ar
    29    14    10    1
@<TRIPOS>MOLECULE
*****
 27 29 0 0 0
SMALL
GASTEIGER

@<TRIPOS>ATOM
      1 N         141.8364  140.4182  165.8034 N.pl3   1  UNL1       -0.3021
      2 C         143.1118  140.8904  165.1705 C.ar    1  UNL1        0.0481
      3 C         143.5478  142.3161  165.3353 C.ar    1  UNL1        0.0145
      4 C         144.8231  142.7883  164.7024 C.ar    1  UNL1        0.0013
      5 C         145.6624  141.8348  163.9047 C.ar    1  UNL1        0.0001
      6 C         145.2264  140.4090  163.7399 C.ar    1  UNL1        0.0013
      7 C         143.9511  139.9368  164.3728 C.ar    1  UNL1        0.0145
      8 C         140.5736  140.3636  164.9956 C.3     1  UNL1        0.1095
      9 C         140.2584  141.4599  164.0216 C.3     1  UNL1        0.1073
     10 N         139.4670  142.6539  164.4666 N.3     1  UNL1       -0.2704
     11 C         139.8439  143.6013  165.5669 C.3     1  UNL1        0.0722
     12 C         138.7696  144.6430  165.6698 C.3     1  UNL1        0.0188
     13 C         137.7287  144.3394  164.6332 C.3     1  UNL1        0.0188
     14 C         138.1598  143.1101  163.8896 C.3     1  UNL1        0.0722
     15 C         140.7346  141.3623  162.6025 C.3     1  UNL1        0.1597
     16 O         141.6895  142.3838  162.0599 O.3     1  UNL1       -0.3523
     17 C         141.1667  143.6570  161.4635 C.3     1  UNL1        0.1421
     18 C         142.2033  145.1544  163.3163 C.3     1  UNL1        0.0026
     19 C         141.1449  144.9146  162.2808 C.3     1  UNL1        0.0297
     20 C         140.0648  145.9322  162.0627 C.3     1  UNL1        0.0026
     21 C         141.8239  140.0006  167.2440 C.3     1  UNL1        0.1177
     22 C         141.1454  140.8610  168.2685 C.ar    1  UNL1       -0.0024
     23 C         141.6303  142.2591  168.5135 C.ar    1  UNL1       -0.0026
     24 C         140.9518  143.1194  169.5379 C.ar    1  UNL1       -0.0003
     25 C         139.7884  142.5817  170.3173 C.ar    1  UNL1       -0.0000
     26 C         139.3035  141.1835  170.0722 C.ar    1  UNL1       -0.0003
     27 C         139.9820  140.3232  169.0478 C.ar    1  UNL1       -0.0026
@<TRIPOS>BOND
     1    18    19    1
     2    19    20    1
     3    19    17    1
     4    17    16    1
     5    16    15    1
     6    15     9    1
     7     9     8    1
     8     8     1    1
     9     1    21    1
    10    21    22    1
    11    22    23   ar
    12    23    24   ar
    13    24    25   ar
    14    25    26   ar
    15    26    27   ar
    16     1     2    1
    17     2     3   ar
    18     3     4   ar
    19     4     5   ar
    20     5     6   ar
    21     6     7   ar
    22     9    10    1
    23    10    11    1
    24    11    12    1
    25    12    13    1
    26    13    14    1
    27    27    22   ar
    28     7     2   ar
    29    14    10    1
@<TRIPOS>MOLECULE
*****
 27 29 0 0 0
SMALL
GASTEIGER

@<TRIPOS>ATOM
      1 N         140.7276  141.1338  166.2331 N.pl3   1  UNL1       -0.3021
      2 C         140.4235  141.5900  167.6293 C.ar    1  UNL1        0.0481
      3 C         140.6338  143.0250  168.0120 C.ar    1  UNL1        0.0145
      4 C         140.3297  143.4812  169.4082 C.ar    1  UNL1        0.0013
      5 C         139.8154  142.5024  170.4218 C.ar    1  UNL1        0.0001
      6 C         139.6051  141.0673  170.0391 C.ar    1  UNL1        0.0013
      7 C         139.9092  140.6111  168.6429 C.ar    1  UNL1        0.0145
      8 C         139.8695  141.5914  165.0910 C.3     1  UNL1        0.1095
      9 C         138.6732  140.7845  164.6815 C.3     1  UNL1        0.1073
     10 N         138.4772  139.4024  165.2304 N.3     1  UNL1       -0.2704
     11 C         137.7592  139.0515  166.4998 C.3     1  UNL1        0.0722
     12 C         137.8030  137.5608  166.6603 C.3     1  UNL1        0.0188
     13 C         138.5482  136.9903  165.4901 C.3     1  UNL1        0.0188
     14 C         138.9648  138.1285  164.6064 C.3     1  UNL1        0.0722
     15 C         137.6729  141.3596  163.7230 C.3     1  UNL1        0.1597
     16 O         138.0912  142.4219  162.7502 O.3     1  UNL1       -0.3523
     17 C         137.7524  143.8586  163.0169 C.3     1  UNL1        0.1421
     18 C         138.7530  144.9576  165.1479 C.3     1  UNL1        0.0026
     19 C         138.7633  144.7605  163.6609 C.3     1  UNL1        0.0297
     20 C         139.7844  145.4653  162.8180 C.3     1  UNL1        0.0026
     21 C         141.8897  140.2202  165.9790 C.3     1  UNL1        0.1177
     22 C         143.1213  140.7438  165.3014 C.ar    1  UNL1       -0.0024
     23 C         143.4655  142.2009  165.3927 C.ar    1  UNL1       -0.0026
     24 C         144.6971  142.7244  164.7151 C.ar    1  UNL1       -0.0003
     25 C         145.5844  141.7909  163.9463 C.ar    1  UNL1       -0.0000
     26 C         145.2402  140.3338  163.8549 C.ar    1  UNL1       -0.0003
     27 C         144.0086  139.8103  164.5325 C.ar    1  UNL1       -0.0026
@<TRIPOS>BOND
     1    18    19    1
     2    19    20    1
     3    19    17    1
     4    17    16    1
     5    16    15    1
     6    15     9    1
     7     9     8    1
     8     8     1    1
     9     1    21    1
    10    21    22    1
    11    22    23   ar
    12    23    24   ar
    13    24    25   ar
    14    25    26   ar
    15    26    27   ar
    16     1     2    1
    17     2     3   ar
    18     3     4   ar
    19     4     5   ar
    20     5     6   ar
    21     6     7   ar
    22     9    10    1
    23    10    11    1
    24    11    12    1
    25    12    13    1
    26    13    14    1
    27    27    22   ar
    28     7     2   ar
    29    14    10    1
@<TRIPOS>MOLECULE
*****
 27 29 0 0 0
SMALL
GASTEIGER

@<TRIPOS>ATOM
      1 N         142.3768  141.3624  166.5332 N.pl3   1  UNL1       -0.3021
      2 C         142.0501  142.1078  167.7933 C.ar    1  UNL1        0.0481
      3 C         143.0844  142.2500  168.8702 C.ar    1  UNL1        0.0145
      4 C         142.7577  142.9953  170.1302 C.ar    1  UNL1        0.0013
      5 C         141.3966  143.5985  170.3133 C.ar    1  UNL1        0.0001
      6 C         140.3621  143.4563  169.2364 C.ar    1  UNL1        0.0013
      7 C         140.6889  142.7109  167.9763 C.ar    1  UNL1        0.0145
      8 C         142.6940  142.1171  165.2762 C.3     1  UNL1        0.1095
      9 C         141.6941  142.1678  164.1593 C.3     1  UNL1        0.1073
     10 N         140.4057  142.9144  164.3395 N.3     1  UNL1       -0.2704
     11 C         139.0286  142.3220  164.2872 C.3     1  UNL1        0.0722
     12 C         138.0400  143.4260  164.5190 C.3     1  UNL1        0.0188
     13 C         138.8061  144.7008  164.7146 C.3     1  UNL1        0.0188
     14 C         140.2682  144.3845  164.6036 C.3     1  UNL1        0.0722
     15 C         141.9826  141.4719  162.8622 C.3     1  UNL1        0.1597
     16 O         143.1758  141.8715  162.0459 O.3     1  UNL1       -0.3523
     17 C         144.3749  140.9725  161.9804 C.3     1  UNL1        0.1421
     18 C         144.9519  139.5368  164.0674 C.3     1  UNL1        0.0026
     19 C         144.3625  139.6526  162.6930 C.3     1  UNL1        0.0297
     20 C         143.7607  138.4486  162.0311 C.3     1  UNL1        0.0026
     21 C         142.3863  139.8625  166.5301 C.3     1  UNL1        0.1177
     22 C         141.2380  139.1064  165.9303 C.ar    1  UNL1       -0.0024
     23 C         141.4949  138.0397  164.9075 C.ar    1  UNL1       -0.0026
     24 C         140.3466  137.2837  164.3077 C.ar    1  UNL1       -0.0003
     25 C         138.9414  137.5943  164.7307 C.ar    1  UNL1       -0.0000
     26 C         138.6845  138.6609  165.7536 C.ar    1  UNL1       -0.0003
     27 C         139.8328  139.4170  166.3533 C.ar    1  UNL1       -0.0026
@<TRIPOS>BOND
     1    18    19    1
     2    19    20    1
     3    19    17    1
     4    17    16    1
     5    16    15    1
     6    15     9    1
     7     9     8    1
     8     8     1    1
     9     1    21    1
    10    21    22    1
    11    22    23   ar
    12    23    24   ar
    13    24    25   ar
    14    25    26   ar
    15    26    27   ar
    16     1     2    1
    17     2     3   ar
    18     3     4   ar
    19     4     5   ar
    20     5     6   ar
    21     6     7   ar
    22     9    10    1
    23    10    11    1
    24    11    12    1
    25    12    13    1
    26    13    14    1
    27    27    22   ar
    28     7     2   ar
    29    14    10    1
