@<TRIPOS>MOLECULE
*****
 33 36 0 0 0
SMALL
GASTEIGER

@<TRIPOS>ATOM
      1 N         141.9593  139.1282  159.7357 N.3     1  UNL1       -0.2673
      2 C         142.5870  140.4423  159.3765 C.3     1  UNL1        0.1035
      3 C         143.5091  141.1224  160.3445 C.3     1  UNL1        0.1470
      4 C         144.4313  141.8026  161.3125 C.3     1  UNL1        0.1035
      5 N         144.7258  141.1686  162.6397 N.3     1  UNL1       -0.2682
      6 C         144.0980  139.8543  162.9988 C.3     1  UNL1        0.1035
      7 C         143.1759  139.1742  162.0308 C.3     1  UNL1        0.1470
      8 C         142.2538  138.4942  161.0628 C.3     1  UNL1        0.1035
      9 O         143.8036  140.4884  161.6717 O.3     1  UNL1       -0.3530
     10 C         141.0371  138.4480  158.7676 C.3     1  UNL1        0.0916
     11 C         139.5897  138.2622  159.1148 C.3     1  UNL1        0.1131
     12 C         138.1577  140.4283  159.0282 C.3     1  UNL1        0.1149
     13 N         138.8416  139.3541  159.8208 N.3     1  UNL1       -0.1526
     14 S         138.7775  139.3716  161.3193 S.O2    1  UNL1        0.0634
     15 O         138.6878  137.8744  161.3330 O.2     1  UNL1       -0.1528
     16 O         138.8672  140.8689  161.3056 O.2     1  UNL1       -0.1528
     17 C         138.7134  139.3891  162.8178 C.ar    1  UNL1        0.1222
     18 C         138.9177  138.1208  163.5921 C.ar    1  UNL1        0.0206
     19 C         138.8536  138.1383  165.0907 C.ar    1  UNL1        0.0116
     20 C         138.5851  139.4242  165.8149 C.ar    1  UNL1        0.0685
     21 C         138.3808  140.6926  165.0406 C.ar    1  UNL1        0.0116
     22 C         138.4449  140.6750  163.5420 C.ar    1  UNL1        0.0206
     23 C         138.5210  139.4417  167.3134 C.1     1  UNL1        0.1004
     24 N         138.4569  139.4592  168.8119 N.1     1  UNL1       -0.1908
     25 C         145.6479  141.8487  163.6077 C.3     1  UNL1        0.0769
     26 C         145.0862  142.7100  164.6998 C.3     1  UNL1        0.0437
     27 C         143.7209  143.3133  164.5519 C.ar    1  UNL1       -0.0206
     28 C         142.5293  142.6286  165.1529 C.ar    1  UNL1       -0.0019
     29 C         141.1639  143.2319  165.0051 C.ar    1  UNL1        0.0293
     30 C         140.9902  144.5199  164.2562 C.ar    1  UNL1        0.1401
     31 F         139.6249  145.1232  164.1083 F       1  UNL1       -0.2042
     32 C         142.1819  145.2046  163.6551 C.ar    1  UNL1        0.0293
     33 C         143.5472  144.6013  163.8030 C.ar    1  UNL1       -0.0019
@<TRIPOS>BOND
     1    12    13    1
     2    13    11    1
     3    11    10    1
     4    10     1    1
     5     1     2    1
     6     2     3    1
     7     3     4    1
     8     4     5    1
     9     5    25    1
    10    25    26    1
    11    26    27    1
    12    27    28   ar
    13    28    29   ar
    14    29    30   ar
    15    30    31    1
    16    30    32   ar
    17    32    33   ar
    18     5     6    1
    19     6     7    1
    20     7     8    1
    21     7     9    1
    22    13    14    1
    23    14    15    2
    24    14    16    2
    25    14    17    1
    26    17    18   ar
    27    18    19   ar
    28    19    20   ar
    29    20    23    1
    30    23    24    3
    31    20    21   ar
    32    21    22   ar
    33     8     1    1
    34    22    17   ar
    35     9     3    1
    36    33    27   ar
@<TRIPOS>MOLECULE
*****
 33 36 0 0 0
SMALL
GASTEIGER

@<TRIPOS>ATOM
      1 N         142.1689  144.0598  162.9637 N.3     1  UNL1       -0.2673
      2 C         140.8999  143.9798  163.7594 C.3     1  UNL1        0.1035
      3 C         139.7882  143.0788  163.3096 C.3     1  UNL1        0.1470
      4 C         138.6764  142.1778  162.8598 C.3     1  UNL1        0.1035
      5 N         138.8337  141.3569  161.6142 N.3     1  UNL1       -0.2682
      6 C         140.1028  141.4370  160.8185 C.3     1  UNL1        0.1035
      7 C         141.2145  142.3380  161.2683 C.3     1  UNL1        0.1470
      8 C         142.3262  143.2389  161.7181 C.3     1  UNL1        0.1035
      9 O         139.9455  142.2579  162.0640 O.3     1  UNL1       -0.3530
     10 C         143.2807  144.9608  163.4135 C.3     1  UNL1        0.0916
     11 C         144.3827  144.4194  164.2751 C.3     1  UNL1        0.1131
     12 C         145.3572  142.0656  163.7650 C.3     1  UNL1        0.1149
     13 N         144.4516  142.9502  164.5696 N.3     1  UNL1       -0.1526
     14 S         143.6148  142.3656  165.6687 S.O2    1  UNL1        0.0634
     15 O         144.1578  143.3859  166.6248 O.2     1  UNL1       -0.1528
     16 O         143.0718  141.3453  164.7126 O.2     1  UNL1       -0.1528
     17 C         142.7781  141.7810  166.7678 C.ar    1  UNL1        0.1222
     18 C         141.7284  140.7582  166.4483 C.ar    1  UNL1        0.0206
     19 C         140.8917  140.1736  167.5474 C.ar    1  UNL1        0.0116
     20 C         141.1046  140.6118  168.9661 C.ar    1  UNL1        0.0685
     21 C         142.1542  141.6346  169.2857 C.ar    1  UNL1        0.0116
     22 C         142.9910  142.2192  168.1866 C.ar    1  UNL1        0.0206
     23 C         140.2678  140.0272  170.0652 C.1     1  UNL1        0.1004
     24 N         139.4310  139.4426  171.1643 N.1     1  UNL1       -0.1908
     25 C         137.7220  140.4560  161.1644 C.3     1  UNL1        0.0769
     26 C         137.7390  139.0021  161.5333 C.3     1  UNL1        0.0437
     27 C         138.7957  138.4754  162.4585 C.ar    1  UNL1       -0.0206
     28 C         140.0620  137.8978  161.8992 C.ar    1  UNL1       -0.0019
     29 C         141.1187  137.3710  162.8244 C.ar    1  UNL1        0.0293
     30 C         140.9091  137.4219  164.3088 C.ar    1  UNL1        0.1401
     31 F         141.9658  136.8952  165.2340 F       1  UNL1       -0.2042
     32 C         139.6428  137.9996  164.8680 C.ar    1  UNL1        0.0293
     33 C         138.5861  138.5263  163.9429 C.ar    1  UNL1       -0.0019
@<TRIPOS>BOND
     1    12    13    1
     2    13    11    1
     3    11    10    1
     4    10     1    1
     5     1     2    1
     6     2     3    1
     7     3     4    1
     8     4     5    1
     9     5    25    1
    10    25    26    1
    11    26    27    1
    12    27    28   ar
    13    28    29   ar
    14    29    30   ar
    15    30    31    1
    16    30    32   ar
    17    32    33   ar
    18     5     6    1
    19     6     7    1
    20     7     8    1
    21     7     9    1
    22    13    14    1
    23    14    15    2
    24    14    16    2
    25    14    17    1
    26    17    18   ar
    27    18    19   ar
    28    19    20   ar
    29    20    23    1
    30    23    24    3
    31    20    21   ar
    32    21    22   ar
    33     8     1    1
    34    22    17   ar
    35     9     3    1
    36    33    27   ar
@<TRIPOS>MOLECULE
*****
 33 36 0 0 0
SMALL
GASTEIGER

@<TRIPOS>ATOM
      1 N         139.6579  142.3724  159.6944 N.3     1  UNL1       -0.2673
      2 C         141.1199  142.2139  159.3991 C.3     1  UNL1        0.1035
      3 C         142.1397  142.8440  160.3007 C.3     1  UNL1        0.1470
      4 C         143.1596  143.4742  161.2022 C.3     1  UNL1        0.1035
      5 N         142.7174  144.2628  162.3992 N.3     1  UNL1       -0.2682
      6 C         141.2552  144.4212  162.6945 C.3     1  UNL1        0.1035
      7 C         140.2354  143.7911  161.7929 C.3     1  UNL1        0.1470
      8 C         139.2156  143.1609  160.8913 C.3     1  UNL1        0.1035
      9 O         141.6975  143.6326  161.4976 O.3     1  UNL1       -0.3530
     10 C         138.6380  141.7422  158.7928 C.3     1  UNL1        0.0916
     11 C         138.0864  140.3855  159.1171 C.3     1  UNL1        0.1131
     12 C         139.7537  138.3935  159.1639 C.3     1  UNL1        0.1149
     13 N         138.9162  139.4038  159.8904 N.3     1  UNL1       -0.1526
     14 S         138.9083  139.4325  161.3901 S.O2    1  UNL1        0.0634
     15 O         137.4083  139.4419  161.3820 O.2     1  UNL1       -0.1528
     16 O         140.4082  139.4231  161.3981 O.2     1  UNL1       -0.1528
     17 C         138.9004  139.4612  162.8898 C.ar    1  UNL1        0.1222
     18 C         138.4861  140.7077  163.6139 C.ar    1  UNL1        0.0206
     19 C         138.4782  140.7364  165.1136 C.ar    1  UNL1        0.0116
     20 C         138.8847  139.5185  165.8892 C.ar    1  UNL1        0.0685
     21 C         139.2991  138.2719  165.1651 C.ar    1  UNL1        0.0116
     22 C         139.3070  138.2432  163.6654 C.ar    1  UNL1        0.0206
     23 C         138.8768  139.5472  167.3889 C.1     1  UNL1        0.1004
     24 N         138.8690  139.5759  168.8886 N.1     1  UNL1       -0.1908
     25 C         143.7372  144.8929  163.3007 C.3     1  UNL1        0.0769
     26 C         144.1109  144.2265  164.5916 C.3     1  UNL1        0.0437
     27 C         143.8817  142.7549  164.7698 C.ar    1  UNL1       -0.0206
     28 C         142.6675  142.2685  165.5040 C.ar    1  UNL1       -0.0019
     29 C         142.4383  140.7968  165.6823 C.ar    1  UNL1        0.0293
     30 C         143.4233  139.8116  165.1262 C.ar    1  UNL1        0.1401
     31 F         143.1941  138.3400  165.3044 F       1  UNL1       -0.2042
     32 C         144.6375  140.2981  164.3919 C.ar    1  UNL1        0.0293
     33 C         144.8667  141.7697  164.2137 C.ar    1  UNL1       -0.0019
@<TRIPOS>BOND
     1    12    13    1
     2    13    11    1
     3    11    10    1
     4    10     1    1
     5     1     2    1
     6     2     3    1
     7     3     4    1
     8     4     5    1
     9     5    25    1
    10    25    26    1
    11    26    27    1
    12    27    28   ar
    13    28    29   ar
    14    29    30   ar
    15    30    31    1
    16    30    32   ar
    17    32    33   ar
    18     5     6    1
    19     6     7    1
    20     7     8    1
    21     7     9    1
    22    13    14    1
    23    14    15    2
    24    14    16    2
    25    14    17    1
    26    17    18   ar
    27    18    19   ar
    28    19    20   ar
    29    20    23    1
    30    23    24    3
    31    20    21   ar
    32    21    22   ar
    33     8     1    1
    34    22    17   ar
    35     9     3    1
    36    33    27   ar
@<TRIPOS>MOLECULE
*****
 33 36 0 0 0
SMALL
GASTEIGER

@<TRIPOS>ATOM
      1 N         141.5262  141.7053  158.7386 N.3     1  UNL1       -0.2673
      2 C         140.0691  141.3745  158.8706 C.3     1  UNL1        0.1035
      3 C         139.2261  142.0913  159.8832 C.3     1  UNL1        0.1470
      4 C         138.3829  142.8082  160.8958 C.3     1  UNL1        0.1035
      5 N         138.9970  143.8559  161.7764 N.3     1  UNL1       -0.2682
      6 C         140.4541  144.1867  161.6443 C.3     1  UNL1        0.1035
      7 C         141.2972  143.4698  160.6317 C.3     1  UNL1        0.1470
      8 C         142.1402  142.7530  159.6191 C.3     1  UNL1        0.1035
      9 O         139.8401  143.1390  160.7637 O.3     1  UNL1       -0.3530
     10 C         142.3693  140.9884  157.7260 C.3     1  UNL1        0.0916
     11 C         143.4329  140.0320  158.1776 C.3     1  UNL1        0.1131
     12 C         142.6598  137.5516  158.1861 C.3     1  UNL1        0.1149
     13 N         143.0550  138.7916  158.9318 N.3     1  UNL1       -0.1526
     14 S         143.0725  138.7913  160.4317 S.O2    1  UNL1        0.0634
     15 O         144.5161  139.1982  160.4150 O.2     1  UNL1       -0.1528
     16 O         141.6288  138.3844  160.4484 O.2     1  UNL1       -0.1528
     17 C         143.0899  138.7910  161.9316 C.ar    1  UNL1        0.1222
     18 C         144.1732  139.5205  162.6692 C.ar    1  UNL1        0.0206
     19 C         144.1907  139.5202  164.1691 C.ar    1  UNL1        0.0116
     20 C         143.1248  138.7903  164.9314 C.ar    1  UNL1        0.0685
     21 C         142.0414  138.0607  164.1938 C.ar    1  UNL1        0.0116
     22 C         142.0239  138.0611  162.6939 C.ar    1  UNL1        0.0206
     23 C         143.1422  138.7900  166.4313 C.1     1  UNL1        0.1004
     24 N         143.1597  138.7897  167.9312 N.1     1  UNL1       -0.1908
     25 C         138.1539  144.5728  162.7889 C.3     1  UNL1        0.0769
     26 C         138.4560  144.4316  164.2515 C.3     1  UNL1        0.0437
     27 C         138.7994  143.0866  164.8199 C.ar    1  UNL1       -0.0206
     28 C         139.9917  142.9339  165.7171 C.ar    1  UNL1       -0.0019
     29 C         140.3352  141.5889  166.2856 C.ar    1  UNL1        0.0293
     30 C         139.4863  140.3967  165.9569 C.ar    1  UNL1        0.1401
     31 F         139.8297  139.0518  166.5253 F       1  UNL1       -0.2042
     32 C         138.2940  140.5495  165.0596 C.ar    1  UNL1        0.0293
     33 C         137.9505  141.8944  164.4912 C.ar    1  UNL1       -0.0019
@<TRIPOS>BOND
     1    12    13    1
     2    13    11    1
     3    11    10    1
     4    10     1    1
     5     1     2    1
     6     2     3    1
     7     3     4    1
     8     4     5    1
     9     5    25    1
    10    25    26    1
    11    26    27    1
    12    27    28   ar
    13    28    29   ar
    14    29    30   ar
    15    30    31    1
    16    30    32   ar
    17    32    33   ar
    18     5     6    1
    19     6     7    1
    20     7     8    1
    21     7     9    1
    22    13    14    1
    23    14    15    2
    24    14    16    2
    25    14    17    1
    26    17    18   ar
    27    18    19   ar
    28    19    20   ar
    29    20    23    1
    30    23    24    3
    31    20    21   ar
    32    21    22   ar
    33     8     1    1
    34    22    17   ar
    35     9     3    1
    36    33    27   ar
@<TRIPOS>MOLECULE
*****
 33 36 0 0 0
SMALL
GASTEIGER

@<TRIPOS>ATOM
      1 N         139.7825  137.7930  164.4091 N.3     1  UNL1       -0.2673
      2 C         141.2413  137.8102  164.7574 C.3     1  UNL1        0.1035
      3 C         142.2598  138.1356  163.7054 C.3     1  UNL1        0.1470
      4 C         143.2783  138.4611  162.6534 C.3     1  UNL1        0.1035
      5 N         142.8379  138.7694  161.2530 N.3     1  UNL1       -0.2682
      6 C         141.3789  138.7522  160.9047 C.3     1  UNL1        0.1035
      7 C         140.3605  138.4268  161.9567 C.3     1  UNL1        0.1470
      8 C         139.3420  138.1013  163.0088 C.3     1  UNL1        0.1035
      9 O         141.8194  138.4439  162.3051 O.3     1  UNL1       -0.3530
     10 C         138.7639  137.4676  165.4612 C.3     1  UNL1        0.0916
     11 C         138.1607  138.5655  166.2861 C.3     1  UNL1        0.1131
     12 C         139.7362  139.7658  167.9676 C.3     1  UNL1        0.1149
     13 N         138.9874  139.7576  166.6679 N.3     1  UNL1       -0.1526
     14 S         139.0652  140.9413  165.7499 S.O2    1  UNL1        0.0634
     15 O         140.3423  141.3693  166.4101 O.2     1  UNL1       -0.1528
     16 O         137.7881  140.5133  165.0897 O.2     1  UNL1       -0.1528
     17 C         139.1430  142.1251  164.8319 C.ar    1  UNL1        0.1222
     18 C         138.5361  142.0531  163.4622 C.ar    1  UNL1        0.0206
     19 C         138.6139  143.2368  162.5442 C.ar    1  UNL1        0.0116
     20 C         139.2987  144.4926  162.9960 C.ar    1  UNL1        0.0685
     21 C         139.9057  144.5646  164.3659 C.ar    1  UNL1        0.0116
     22 C         139.8279  143.3808  165.2838 C.ar    1  UNL1        0.0206
     23 C         139.3765  145.6763  162.0780 C.1     1  UNL1        0.1004
     24 N         139.4543  146.8601  161.1600 N.1     1  UNL1       -0.1908
     25 C         143.8563  139.0948  160.2010 C.3     1  UNL1        0.0769
     26 C         143.9182  140.4758  159.6187 C.3     1  UNL1        0.0437
     27 C         143.7303  141.6721  160.5039 C.ar    1  UNL1       -0.0206
     28 C         144.7051  141.9469  161.6103 C.ar    1  UNL1       -0.0019
     29 C         144.5172  143.1432  162.4955 C.ar    1  UNL1        0.0293
     30 C         143.3545  144.0647  162.2743 C.ar    1  UNL1        0.1401
     31 F         143.1665  145.2609  163.1595 F       1  UNL1       -0.2042
     32 C         142.3796  143.7898  161.1679 C.ar    1  UNL1        0.0293
     33 C         142.5675  142.5936  160.2827 C.ar    1  UNL1       -0.0019
@<TRIPOS>BOND
     1    12    13    1
     2    13    11    1
     3    11    10    1
     4    10     1    1
     5     1     2    1
     6     2     3    1
     7     3     4    1
     8     4     5    1
     9     5    25    1
    10    25    26    1
    11    26    27    1
    12    27    28   ar
    13    28    29   ar
    14    29    30   ar
    15    30    31    1
    16    30    32   ar
    17    32    33   ar
    18     5     6    1
    19     6     7    1
    20     7     8    1
    21     7     9    1
    22    13    14    1
    23    14    15    2
    24    14    16    2
    25    14    17    1
    26    17    18   ar
    27    18    19   ar
    28    19    20   ar
    29    20    23    1
    30    23    24    3
    31    20    21   ar
    32    21    22   ar
    33     8     1    1
    34    22    17   ar
    35     9     3    1
    36    33    27   ar
@<TRIPOS>MOLECULE
*****
 33 36 0 0 0
SMALL
GASTEIGER

@<TRIPOS>ATOM
      1 N         138.8035  140.4458  159.8253 N.3     1  UNL1       -0.2673
      2 C         138.1395  139.8847  161.0477 C.3     1  UNL1        0.1035
      3 C         137.8045  140.7854  162.1994 C.3     1  UNL1        0.1470
      4 C         137.4696  141.6861  163.3512 C.3     1  UNL1        0.1035
      5 N         137.7987  143.1479  163.2806 N.3     1  UNL1       -0.2682
      6 C         138.4627  143.7089  162.0581 C.3     1  UNL1        0.1035
      7 C         138.7977  142.8082  160.9064 C.3     1  UNL1        0.1470
      8 C         139.1326  141.9075  159.7547 C.3     1  UNL1        0.1035
      9 O         138.1336  142.2472  162.1288 O.3     1  UNL1       -0.3530
     10 C         139.1385  139.5451  158.6735 C.3     1  UNL1        0.0916
     11 C         140.1877  138.4848  158.8310 C.3     1  UNL1        0.1131
     12 C         142.6520  139.1839  158.3971 C.3     1  UNL1        0.1149
     13 N         141.5467  138.8461  159.3531 N.3     1  UNL1       -0.1526
     14 S         141.8003  138.8697  160.8314 S.O2    1  UNL1        0.0634
     15 O         142.1508  140.3258  160.7480 O.2     1  UNL1       -0.1528
     16 O         141.4499  137.4136  160.9147 O.2     1  UNL1       -0.1528
     17 C         142.0539  138.8933  162.3096 C.ar    1  UNL1        0.1222
     18 C         140.9074  138.7737  163.2692 C.ar    1  UNL1        0.0206
     19 C         141.1610  138.7973  164.7475 C.ar    1  UNL1        0.0116
     20 C         142.5612  138.9404  165.2660 C.ar    1  UNL1        0.0685
     21 C         143.7078  139.0600  164.3063 C.ar    1  UNL1        0.0116
     22 C         143.4542  139.0364  162.8281 C.ar    1  UNL1        0.0206
     23 C         142.8148  138.9640  166.7442 C.1     1  UNL1        0.1004
     24 N         143.0684  138.9876  168.2224 N.1     1  UNL1       -0.1908
     25 C         137.4637  144.0486  164.4323 C.3     1  UNL1        0.0769
     26 C         138.5623  144.6964  165.2220 C.3     1  UNL1        0.0437
     27 C         139.9080  144.0401  165.3130 C.ar    1  UNL1       -0.0206
     28 C         140.1586  142.9832  166.3474 C.ar    1  UNL1       -0.0019
     29 C         141.5043  142.3268  166.4384 C.ar    1  UNL1        0.0293
     30 C         142.5995  142.7274  165.4949 C.ar    1  UNL1        0.1401
     31 F         143.9452  142.0711  165.5859 F       1  UNL1       -0.2042
     32 C         142.3489  143.7844  164.4605 C.ar    1  UNL1        0.0293
     33 C         141.0032  144.4407  164.3695 C.ar    1  UNL1       -0.0019
@<TRIPOS>BOND
     1    12    13    1
     2    13    11    1
     3    11    10    1
     4    10     1    1
     5     1     2    1
     6     2     3    1
     7     3     4    1
     8     4     5    1
     9     5    25    1
    10    25    26    1
    11    26    27    1
    12    27    28   ar
    13    28    29   ar
    14    29    30   ar
    15    30    31    1
    16    30    32   ar
    17    32    33   ar
    18     5     6    1
    19     6     7    1
    20     7     8    1
    21     7     9    1
    22    13    14    1
    23    14    15    2
    24    14    16    2
    25    14    17    1
    26    17    18   ar
    27    18    19   ar
    28    19    20   ar
    29    20    23    1
    30    23    24    3
    31    20    21   ar
    32    21    22   ar
    33     8     1    1
    34    22    17   ar
    35     9     3    1
    36    33    27   ar
@<TRIPOS>MOLECULE
*****
 33 36 0 0 0
SMALL
GASTEIGER

@<TRIPOS>ATOM
      1 N         142.0039  143.0110  160.4925 N.3     1  UNL1       -0.2673
      2 C         143.0782  143.5422  161.3945 C.3     1  UNL1        0.1035
      3 C         143.6470  142.6726  162.4763 C.3     1  UNL1        0.1470
      4 C         144.2158  141.8030  163.5582 C.3     1  UNL1        0.1035
      5 N         143.7102  140.4023  163.7380 N.3     1  UNL1       -0.2682
      6 C         142.6358  139.8711  162.8359 C.3     1  UNL1        0.1035
      7 C         142.0671  140.7407  161.7541 C.3     1  UNL1        0.1470
      8 C         141.4984  141.6102  160.6723 C.3     1  UNL1        0.1035
      9 O         143.1414  141.2719  162.6561 O.3     1  UNL1       -0.3530
     10 C         141.4351  143.8805  159.4106 C.3     1  UNL1        0.0916
     11 C         140.1295  144.5871  159.6250 C.3     1  UNL1        0.1131
     12 C         139.5907  146.3755  161.4309 C.3     1  UNL1        0.1149
     13 N         139.6857  144.9377  161.0144 N.3     1  UNL1       -0.1526
     14 S         139.3370  143.8504  161.9871 S.O2    1  UNL1        0.0634
     15 O         140.2911  144.4370  162.9849 O.2     1  UNL1       -0.1528
     16 O         138.3828  143.2638  160.9894 O.2     1  UNL1       -0.1528
     17 C         138.9882  142.7631  162.9599 C.ar    1  UNL1        0.1222
     18 C         137.9965  141.7047  162.5777 C.ar    1  UNL1        0.0206
     19 C         137.6477  140.6174  163.5505 C.ar    1  UNL1        0.0116
     20 C         138.2907  140.5886  164.9053 C.ar    1  UNL1        0.0685
     21 C         139.2825  141.6471  165.2875 C.ar    1  UNL1        0.0116
     22 C         139.6313  142.7344  164.3148 C.ar    1  UNL1        0.0206
     23 C         137.9420  139.5013  165.8781 C.1     1  UNL1        0.1004
     24 N         137.5932  138.4140  166.8508 N.1     1  UNL1       -0.1908
     25 C         144.2789  139.5328  164.8198 C.3     1  UNL1        0.0769
     26 C         143.3807  138.9759  165.8844 C.3     1  UNL1        0.0437
     27 C         142.5883  139.9029  166.7576 C.ar    1  UNL1       -0.0206
     28 C         141.3996  139.3881  167.5138 C.ar    1  UNL1       -0.0019
     29 C         140.6072  140.3152  168.3871 C.ar    1  UNL1        0.0293
     30 C         141.0035  141.7571  168.5041 C.ar    1  UNL1        0.1401
     31 F         140.2111  142.6842  169.3774 F       1  UNL1       -0.2042
     32 C         142.1922  142.2720  167.7479 C.ar    1  UNL1        0.0293
     33 C         142.9846  141.3449  166.8746 C.ar    1  UNL1       -0.0019
@<TRIPOS>BOND
     1    12    13    1
     2    13    11    1
     3    11    10    1
     4    10     1    1
     5     1     2    1
     6     2     3    1
     7     3     4    1
     8     4     5    1
     9     5    25    1
    10    25    26    1
    11    26    27    1
    12    27    28   ar
    13    28    29   ar
    14    29    30   ar
    15    30    31    1
    16    30    32   ar
    17    32    33   ar
    18     5     6    1
    19     6     7    1
    20     7     8    1
    21     7     9    1
    22    13    14    1
    23    14    15    2
    24    14    16    2
    25    14    17    1
    26    17    18   ar
    27    18    19   ar
    28    19    20   ar
    29    20    23    1
    30    23    24    3
    31    20    21   ar
    32    21    22   ar
    33     8     1    1
    34    22    17   ar
    35     9     3    1
    36    33    27   ar
@<TRIPOS>MOLECULE
*****
 33 36 0 0 0
SMALL
GASTEIGER

@<TRIPOS>ATOM
      1 N         138.4395  141.5781  160.0708 N.3     1  UNL1       -0.2673
      2 C         138.6133  140.1084  160.3154 C.3     1  UNL1        0.1035
      3 C         138.5260  139.5649  161.7107 C.3     1  UNL1        0.1470
      4 C         138.4388  139.0213  163.1061 C.3     1  UNL1        0.1035
      5 N         138.1778  139.9475  164.2568 N.3     1  UNL1       -0.2682
      6 C         138.0041  141.4172  164.0122 C.3     1  UNL1        0.1035
      7 C         138.0913  141.9607  162.6168 C.3     1  UNL1        0.1470
      8 C         138.1785  142.5042  161.2215 C.3     1  UNL1        0.1035
      9 O         138.2650  140.4910  162.8614 O.3     1  UNL1       -0.3530
     10 C         138.5268  142.1216  158.6754 C.3     1  UNL1        0.0916
     11 C         139.3157  143.3682  158.4041 C.3     1  UNL1        0.1131
     12 C         141.5800  143.1554  157.1481 C.3     1  UNL1        0.1149
     13 N         140.8150  143.3268  158.4269 N.3     1  UNL1       -0.1526
     14 S         141.5492  143.4569  159.7284 S.O2    1  UNL1        0.0634
     15 O         141.1300  144.8941  159.8213 O.2     1  UNL1       -0.1528
     16 O         141.9683  142.0196  159.6356 O.2     1  UNL1       -0.1528
     17 C         142.2833  143.5869  161.0300 C.ar    1  UNL1        0.1222
     18 C         143.7387  143.2325  161.1088 C.ar    1  UNL1        0.0206
     19 C         144.4729  143.3625  162.4104 C.ar    1  UNL1        0.0116
     20 C         143.7517  143.8470  163.6331 C.ar    1  UNL1        0.0685
     21 C         142.2963  144.2015  163.5543 C.ar    1  UNL1        0.0116
     22 C         141.5621  144.0714  162.2528 C.ar    1  UNL1        0.0206
     23 C         144.4859  143.9770  164.9347 C.1     1  UNL1        0.1004
     24 N         145.2201  144.1071  166.2362 N.1     1  UNL1       -0.1908
     25 C         138.0906  139.4040  165.6521 C.3     1  UNL1        0.0769
     26 C         139.3215  139.3287  166.5061 C.3     1  UNL1        0.0437
     27 C         139.6991  140.4868  167.3814 C.ar    1  UNL1       -0.0206
     28 C         140.2743  141.7310  166.7723 C.ar    1  UNL1       -0.0019
     29 C         140.6518  142.8892  167.6476 C.ar    1  UNL1        0.0293
     30 C         140.4542  142.8031  169.1320 C.ar    1  UNL1        0.1401
     31 F         140.8318  143.9612  170.0073 F       1  UNL1       -0.2042
     32 C         139.8790  141.5588  169.7411 C.ar    1  UNL1        0.0293
     33 C         139.5014  140.4007  168.8658 C.ar    1  UNL1       -0.0019
@<TRIPOS>BOND
     1    12    13    1
     2    13    11    1
     3    11    10    1
     4    10     1    1
     5     1     2    1
     6     2     3    1
     7     3     4    1
     8     4     5    1
     9     5    25    1
    10    25    26    1
    11    26    27    1
    12    27    28   ar
    13    28    29   ar
    14    29    30   ar
    15    30    31    1
    16    30    32   ar
    17    32    33   ar
    18     5     6    1
    19     6     7    1
    20     7     8    1
    21     7     9    1
    22    13    14    1
    23    14    15    2
    24    14    16    2
    25    14    17    1
    26    17    18   ar
    27    18    19   ar
    28    19    20   ar
    29    20    23    1
    30    23    24    3
    31    20    21   ar
    32    21    22   ar
    33     8     1    1
    34    22    17   ar
    35     9     3    1
    36    33    27   ar
@<TRIPOS>MOLECULE
*****
 33 36 0 0 0
SMALL
GASTEIGER

@<TRIPOS>ATOM
      1 N         140.2179  141.0386  158.5601 N.3     1  UNL1       -0.2673
      2 C         140.7291  142.4483  158.5237 C.3     1  UNL1        0.1035
      3 C         140.3358  143.4167  159.5995 C.3     1  UNL1        0.1470
      4 C         139.9425  144.3852  160.6754 C.3     1  UNL1        0.1035
      5 N         139.0380  143.9439  161.7877 N.3     1  UNL1       -0.2682
      6 C         138.5267  142.5341  161.8240 C.3     1  UNL1        0.1035
      7 C         138.9200  141.5657  160.7482 C.3     1  UNL1        0.1470
      8 C         139.3133  140.5973  159.6723 C.3     1  UNL1        0.1035
      9 O         139.4313  142.9754  160.7118 O.3     1  UNL1       -0.3530
     10 C         140.6112  140.0702  157.4842 C.3     1  UNL1        0.0916
     11 C         141.7723  139.1446  157.6962 C.3     1  UNL1        0.1131
     12 C         144.1078  140.2829  157.7038 C.3     1  UNL1        0.1149
     13 N         142.9835  139.6196  158.4428 N.3     1  UNL1       -0.1526
     14 S         143.0705  139.4312  159.9283 S.O2    1  UNL1        0.0634
     15 O         143.6456  140.8094  160.0694 O.2     1  UNL1       -0.1528
     16 O         142.4954  138.0531  159.7873 O.2     1  UNL1       -0.1528
     17 C         143.1574  139.2429  161.4139 C.ar    1  UNL1        0.1222
     18 C         144.2234  139.9488  162.1983 C.ar    1  UNL1        0.0206
     19 C         144.3104  139.7605  163.6839 C.ar    1  UNL1        0.0116
     20 C         143.3313  138.8662  164.3851 C.ar    1  UNL1        0.0685
     21 C         142.2652  138.1603  163.6007 C.ar    1  UNL1        0.0116
     22 C         142.1783  138.3486  162.1151 C.ar    1  UNL1        0.0206
     23 C         143.4183  138.6779  165.8707 C.1     1  UNL1        0.1004
     24 N         143.5052  138.4896  167.3563 N.1     1  UNL1       -0.1908
     25 C         138.6447  144.9123  162.8635 C.3     1  UNL1        0.0769
     26 C         139.2825  144.8276  164.2186 C.3     1  UNL1        0.0437
     27 C         140.7077  144.3789  164.3499 C.ar    1  UNL1       -0.0206
     28 C         141.0256  143.0809  165.0312 C.ar    1  UNL1       -0.0019
     29 C         142.4509  142.6321  165.1626 C.ar    1  UNL1        0.0293
     30 C         143.5583  143.4814  164.6127 C.ar    1  UNL1        0.1401
     31 F         144.9835  143.0327  164.7441 F       1  UNL1       -0.2042
     32 C         143.2404  144.7795  163.9314 C.ar    1  UNL1        0.0293
     33 C         141.8151  145.2282  163.8000 C.ar    1  UNL1       -0.0019
@<TRIPOS>BOND
     1    12    13    1
     2    13    11    1
     3    11    10    1
     4    10     1    1
     5     1     2    1
     6     2     3    1
     7     3     4    1
     8     4     5    1
     9     5    25    1
    10    25    26    1
    11    26    27    1
    12    27    28   ar
    13    28    29   ar
    14    29    30   ar
    15    30    31    1
    16    30    32   ar
    17    32    33   ar
    18     5     6    1
    19     6     7    1
    20     7     8    1
    21     7     9    1
    22    13    14    1
    23    14    15    2
    24    14    16    2
    25    14    17    1
    26    17    18   ar
    27    18    19   ar
    28    19    20   ar
    29    20    23    1
    30    23    24    3
    31    20    21   ar
    32    21    22   ar
    33     8     1    1
    34    22    17   ar
    35     9     3    1
    36    33    27   ar
