@<TRIPOS>MOLECULE
*****
 31 34 0 0 0
SMALL
GASTEIGER

@<TRIPOS>ATOM
      1 O         139.8554  141.2330  162.0018 O.3     1  UNL1       -0.3470
      2 C         138.9586  141.7309  163.0962 C.3     1  UNL1        0.1874
      3 C         139.8956  141.3816  166.9367 C.ar    1  UNL1        0.0583
      4 C         139.3184  140.0325  167.2478 C.ar    1  UNL1        0.0186
      5 C         138.6213  139.2495  166.1750 C.ar    1  UNL1        0.0738
      6 C         138.5014  139.8157  164.7911 C.ar    1  UNL1        0.0211
      7 C         139.0785  141.1648  164.4800 C.ar    1  UNL1        0.0883
      8 N         139.7756  141.9477  165.5528 N.ar    1  UNL1       -0.2515
      9 C         143.2897  142.2405  169.0667 C.3     1  UNL1        0.0004
     10 C         141.8350  142.4790  168.7892 C.3     1  UNL1        0.0059
     11 C         140.5578  143.2065  169.0881 C.3     1  UNL1        0.0063
     12 C         140.5927  142.1646  168.0096 C.3     1  UNL1        0.0403
     13 C         138.0441  137.9004  166.4860 C.3     1  UNL1        0.4187
     14 F         137.4669  136.5513  166.7970 F       1  UNL1       -0.1659
     15 F         137.2201  138.5059  167.5834 F       1  UNL1       -0.1659
     16 F         138.8681  137.2948  165.3886 F       1  UNL1       -0.1659
     17 C         141.3052  140.9692  162.2820 C.3     1  UNL1        0.1467
     18 C         141.9488  139.7099  161.7817 C.3     1  UNL1        0.0489
     19 C         141.4431  140.2758  160.4878 C.3     1  UNL1        0.0238
     20 C         141.6789  139.5378  159.2034 C.3     1  UNL1        0.0725
     21 N         142.4204  138.2339  159.2128 N.3     1  UNL1       -0.2715
     22 C         142.6562  137.4959  157.9285 C.3     1  UNL1        0.0896
     23 C         142.9260  137.6681  160.5067 C.3     1  UNL1        0.0725
     24 C         142.6902  138.4060  161.7911 C.3     1  UNL1        0.0238
     25 C         142.2309  139.5813  163.2493 C.ar    1  UNL1       -0.0202
     26 C         142.8905  140.7082  163.9877 C.ar    1  UNL1       -0.0019
     27 C         143.1726  140.5795  165.4553 C.ar    1  UNL1        0.0293
     28 C         142.7952  139.3242  166.1845 C.ar    1  UNL1        0.1401
     29 F         143.0774  139.1957  167.6522 F       1  UNL1       -0.2042
     30 C         142.1357  138.1975  165.4461 C.ar    1  UNL1        0.0293
     31 C         141.8535  138.3260  163.9784 C.ar    1  UNL1       -0.0019
@<TRIPOS>BOND
     1     9    10    1
     2    10    11    1
     3    11    12    1
     4    12     3    1
     5     3     4   ar
     6     4     5   ar
     7     5    13    1
     8    13    14    1
     9    13    15    1
    10    13    16    1
    11     5     6   ar
    12     6     7   ar
    13     7     2    1
    14     2     1    1
    15     1    17    1
    16    17    18    1
    17    18    25    1
    18    25    26   ar
    19    26    27   ar
    20    27    28   ar
    21    28    29    1
    22    28    30   ar
    23    30    31   ar
    24    18    19    1
    25    19    20    1
    26    20    21    1
    27    21    22    1
    28    21    23    1
    29    23    24    1
    30     7     8   ar
    31    12    10    1
    32     8     3   ar
    33    24    18    1
    34    31    25   ar
@<TRIPOS>MOLECULE
*****
 31 34 0 0 0
SMALL
GASTEIGER

@<TRIPOS>ATOM
      1 O         141.8818  138.0347  162.5059 O.3     1  UNL1       -0.3470
      2 C         142.7785  138.4912  163.6183 C.3     1  UNL1        0.1874
      3 C         141.3598  141.8081  165.2720 C.ar    1  UNL1        0.0583
      4 C         141.2412  141.3820  166.7053 C.ar    1  UNL1        0.0186
      5 C         141.6350  139.9923  167.1096 C.ar    1  UNL1        0.0738
      6 C         142.1475  139.0287  166.0806 C.ar    1  UNL1        0.0211
      7 C         142.2661  139.4548  164.6473 C.ar    1  UNL1        0.0883
      8 N         141.8723  140.8445  164.2430 N.ar    1  UNL1       -0.2515
      9 C         138.6086  144.8450  165.2234 C.3     1  UNL1        0.0004
     10 C         139.9590  144.3095  164.8499 C.3     1  UNL1        0.0059
     11 C         141.2910  144.4935  164.1852 C.3     1  UNL1        0.0063
     12 C         140.9660  143.1980  164.8677 C.3     1  UNL1        0.0403
     13 C         141.5164  139.5661  168.5429 C.3     1  UNL1        0.4187
     14 F         141.3979  139.1399  169.9761 F       1  UNL1       -0.1659
     15 F         142.8807  138.9467  168.4716 F       1  UNL1       -0.1659
     16 F         140.1522  140.1855  168.6142 F       1  UNL1       -0.1659
     17 C         140.4261  137.7869  162.7697 C.3     1  UNL1        0.1467
     18 C         139.3897  138.6791  162.1533 C.3     1  UNL1        0.0489
     19 C         140.1946  138.3347  160.9353 C.3     1  UNL1        0.0238
     20 C         139.8086  138.8945  159.5983 C.3     1  UNL1        0.0725
     21 N         138.6177  139.7987  159.4793 N.3     1  UNL1       -0.2715
     22 C         138.2316  140.3585  158.1423 C.3     1  UNL1        0.0896
     23 C         137.8128  140.1431  160.6973 C.3     1  UNL1        0.0725
     24 C         138.1988  139.5833  162.0343 C.3     1  UNL1        0.0238
     25 C         138.9448  138.7137  163.5854 C.ar    1  UNL1       -0.0202
     26 C         138.4738  140.0014  164.1936 C.ar    1  UNL1       -0.0019
     27 C         138.0289  140.0359  165.6257 C.ar    1  UNL1        0.0293
     28 C         138.0549  138.7827  166.4496 C.ar    1  UNL1        0.1401
     29 F         137.6100  138.8172  167.8817 F       1  UNL1       -0.2042
     30 C         138.5259  137.4950  165.8414 C.ar    1  UNL1        0.0293
     31 C         138.9708  137.4605  164.4093 C.ar    1  UNL1       -0.0019
@<TRIPOS>BOND
     1     9    10    1
     2    10    11    1
     3    11    12    1
     4    12     3    1
     5     3     4   ar
     6     4     5   ar
     7     5    13    1
     8    13    14    1
     9    13    15    1
    10    13    16    1
    11     5     6   ar
    12     6     7   ar
    13     7     2    1
    14     2     1    1
    15     1    17    1
    16    17    18    1
    17    18    25    1
    18    25    26   ar
    19    26    27   ar
    20    27    28   ar
    21    28    29    1
    22    28    30   ar
    23    30    31   ar
    24    18    19    1
    25    19    20    1
    26    20    21    1
    27    21    22    1
    28    21    23    1
    29    23    24    1
    30     7     8   ar
    31    12    10    1
    32     8     3   ar
    33    24    18    1
    34    31    25   ar
@<TRIPOS>MOLECULE
*****
 31 34 0 0 0
SMALL
GASTEIGER

@<TRIPOS>ATOM
      1 O         143.1784  138.7506  164.0131 O.3     1  UNL1       -0.3470
      2 C         141.8348  138.2353  163.5901 C.3     1  UNL1        0.1874
      3 C         138.8865  140.7773  164.3619 C.ar    1  UNL1        0.0583
      4 C         138.0908  139.9932  165.3628 C.ar    1  UNL1        0.0186
      5 C         138.5431  138.6231  165.7728 C.ar    1  UNL1        0.0738
      6 C         139.7911  138.0371  165.1819 C.ar    1  UNL1        0.0211
      7 C         140.5868  138.8213  164.1810 C.ar    1  UNL1        0.0883
      8 N         140.1345  140.1914  163.7710 N.ar    1  UNL1       -0.2515
      9 C         138.5393  144.7840  165.1498 C.3     1  UNL1        0.0004
     10 C         138.3071  143.6141  164.2402 C.3     1  UNL1        0.0059
     11 C         137.7780  143.0542  162.9532 C.3     1  UNL1        0.0063
     12 C         138.4342  142.1476  163.9518 C.3     1  UNL1        0.0403
     13 C         137.7473  137.8388  166.7738 C.3     1  UNL1        0.4187
     14 F         136.9517  137.0547  167.7747 F       1  UNL1       -0.1659
     15 F         137.6750  139.0456  167.6617 F       1  UNL1       -0.1659
     16 F         137.8197  136.6321  165.8859 F       1  UNL1       -0.1659
     17 C         143.3154  139.5313  165.2866 C.3     1  UNL1        0.1467
     18 C         143.1404  141.0211  165.2755 C.3     1  UNL1        0.0489
     19 C         143.9193  140.8408  164.0062 C.3     1  UNL1        0.0238
     20 C         144.2738  142.0331  163.1680 C.3     1  UNL1        0.0725
     21 N         143.8495  143.4058  163.5990 N.3     1  UNL1       -0.2715
     22 C         144.2039  144.5982  162.7608 C.3     1  UNL1        0.0896
     23 C         143.0706  143.5860  164.8682 C.3     1  UNL1        0.0725
     24 C         142.7161  142.3937  165.7064 C.3     1  UNL1        0.0238
     25 C         142.4224  140.6840  166.5485 C.ar    1  UNL1       -0.0202
     26 C         141.1742  141.4260  166.9247 C.ar    1  UNL1       -0.0019
     27 C         140.4562  141.0888  168.1978 C.ar    1  UNL1        0.0293
     28 C         140.9863  140.0097  169.0947 C.ar    1  UNL1        0.1401
     29 F         140.2682  139.6727  170.3679 F       1  UNL1       -0.2042
     30 C         142.2345  139.2679  168.7186 C.ar    1  UNL1        0.0293
     31 C         142.9526  139.6049  167.4455 C.ar    1  UNL1       -0.0019
@<TRIPOS>BOND
     1     9    10    1
     2    10    11    1
     3    11    12    1
     4    12     3    1
     5     3     4   ar
     6     4     5   ar
     7     5    13    1
     8    13    14    1
     9    13    15    1
    10    13    16    1
    11     5     6   ar
    12     6     7   ar
    13     7     2    1
    14     2     1    1
    15     1    17    1
    16    17    18    1
    17    18    25    1
    18    25    26   ar
    19    26    27   ar
    20    27    28   ar
    21    28    29    1
    22    28    30   ar
    23    30    31   ar
    24    18    19    1
    25    19    20    1
    26    20    21    1
    27    21    22    1
    28    21    23    1
    29    23    24    1
    30     7     8   ar
    31    12    10    1
    32     8     3   ar
    33    24    18    1
    34    31    25   ar
@<TRIPOS>MOLECULE
*****
 31 34 0 0 0
SMALL
GASTEIGER

@<TRIPOS>ATOM
      1 O         141.7635  137.9372  162.2813 O.3     1  UNL1       -0.3470
      2 C         142.6647  138.4110  163.3828 C.3     1  UNL1        0.1874
      3 C         141.5331  140.3441  166.6588 C.ar    1  UNL1        0.0583
      4 C         141.3268  141.7268  166.1151 C.ar    1  UNL1        0.0186
      5 C         141.5664  142.0042  164.6607 C.ar    1  UNL1        0.0738
      6 C         142.0124  140.8989  163.7499 C.ar    1  UNL1        0.0211
      7 C         142.2187  139.5162  164.2936 C.ar    1  UNL1        0.0883
      8 N         141.9791  139.2388  165.7480 N.ar    1  UNL1       -0.2515
      9 C         139.1146  140.5539  169.9605 C.3     1  UNL1        0.0004
     10 C         140.4082  140.1434  169.3219 C.3     1  UNL1        0.0059
     11 C         141.7637  139.5093  169.4242 C.3     1  UNL1        0.0063
     12 C         141.2935  140.0666  168.1134 C.3     1  UNL1        0.0403
     13 C         141.3601  143.3869  164.1169 C.3     1  UNL1        0.4187
     14 F         141.1538  144.7695  163.5731 F       1  UNL1       -0.1659
     15 F         140.1096  142.9288  163.4267 F       1  UNL1       -0.1659
     16 F         142.6107  143.8449  164.8070 F       1  UNL1       -0.1659
     17 C         140.3000  137.7379  162.5430 C.3     1  UNL1        0.1467
     18 C         139.2995  138.7057  161.9840 C.3     1  UNL1        0.0489
     19 C         140.0429  138.3470  160.7315 C.3     1  UNL1        0.0238
     20 C         139.6483  138.9639  159.4224 C.3     1  UNL1        0.0725
     21 N         138.5104  139.9395  159.3658 N.3     1  UNL1       -0.2715
     22 C         138.1157  140.5564  158.0567 C.3     1  UNL1        0.0896
     23 C         137.7670  140.2982  160.6183 C.3     1  UNL1        0.0725
     24 C         138.1616  139.6813  161.9273 C.3     1  UNL1        0.0238
     25 C         138.9036  138.7283  163.4306 C.ar    1  UNL1       -0.0202
     26 C         138.4586  140.0119  164.0664 C.ar    1  UNL1       -0.0019
     27 C         138.0627  140.0345  165.5130 C.ar    1  UNL1        0.0293
     28 C         138.1118  138.7735  166.3239 C.ar    1  UNL1        0.1401
     29 F         137.7159  138.7961  167.7706 F       1  UNL1       -0.2042
     30 C         138.5568  137.4899  165.6881 C.ar    1  UNL1        0.0293
     31 C         138.9528  137.4673  164.2414 C.ar    1  UNL1       -0.0019
@<TRIPOS>BOND
     1     9    10    1
     2    10    11    1
     3    11    12    1
     4    12     3    1
     5     3     4   ar
     6     4     5   ar
     7     5    13    1
     8    13    14    1
     9    13    15    1
    10    13    16    1
    11     5     6   ar
    12     6     7   ar
    13     7     2    1
    14     2     1    1
    15     1    17    1
    16    17    18    1
    17    18    25    1
    18    25    26   ar
    19    26    27   ar
    20    27    28   ar
    21    28    29    1
    22    28    30   ar
    23    30    31   ar
    24    18    19    1
    25    19    20    1
    26    20    21    1
    27    21    22    1
    28    21    23    1
    29    23    24    1
    30     7     8   ar
    31    12    10    1
    32     8     3   ar
    33    24    18    1
    34    31    25   ar
@<TRIPOS>MOLECULE
*****
 31 34 0 0 0
SMALL
GASTEIGER

@<TRIPOS>ATOM
      1 O         143.3612  141.1010  165.2649 O.3     1  UNL1       -0.3470
      2 C         142.9153  139.9006  164.4838 C.3     1  UNL1        0.1874
      3 C         139.4057  139.9263  162.6312 C.ar    1  UNL1        0.0583
      4 C         138.5398  139.2538  163.6549 C.ar    1  UNL1        0.0186
      5 C         139.1325  138.7969  164.9549 C.ar    1  UNL1        0.0738
      6 C         140.5910  139.0125  165.2312 C.ar    1  UNL1        0.0211
      7 C         141.4568  139.6850  164.2075 C.ar    1  UNL1        0.0883
      8 N         140.8642  140.1419  162.9075 N.ar    1  UNL1       -0.2515
      9 C         139.1212  142.7221  159.6485 C.3     1  UNL1        0.0004
     10 C         138.7089  141.4065  160.2394 C.3     1  UNL1        0.0059
     11 C         137.8908  140.1512  160.1712 C.3     1  UNL1        0.0063
     12 C         138.8131  140.3832  161.3312 C.3     1  UNL1        0.0403
     13 C         138.2666  138.1244  165.9787 C.3     1  UNL1        0.4187
     14 F         137.4008  137.4518  167.0024 F       1  UNL1       -0.1659
     15 F         138.7426  136.7845  165.5010 F       1  UNL1       -0.1659
     16 F         137.7906  139.4642  166.4564 F       1  UNL1       -0.1659
     17 C         142.4662  142.2998  165.3738 C.3     1  UNL1        0.1467
     18 C         141.6254  142.4991  166.6000 C.3     1  UNL1        0.0489
     19 C         142.9210  142.0906  167.2361 C.3     1  UNL1        0.0238
     20 C         143.0273  141.9992  168.7295 C.3     1  UNL1        0.0725
     21 N         141.8380  142.3163  169.5869 N.3     1  UNL1       -0.2715
     22 C         141.9442  142.2250  171.0803 C.3     1  UNL1        0.0896
     23 C         140.5424  142.7248  168.9507 C.3     1  UNL1        0.0725
     24 C         140.4361  142.8162  167.4573 C.3     1  UNL1        0.0238
     25 C         140.6218  142.8384  165.5381 C.ar    1  UNL1       -0.0202
     26 C         141.0436  143.6217  164.3303 C.ar    1  UNL1       -0.0019
     27 C         140.0400  143.9609  163.2684 C.ar    1  UNL1        0.0293
     28 C         138.6146  143.5169  163.4142 C.ar    1  UNL1        0.1401
     29 F         137.6111  143.8563  162.3522 F       1  UNL1       -0.2042
     30 C         138.1929  142.7337  164.6218 C.ar    1  UNL1        0.0293
     31 C         139.1965  142.3944  165.6838 C.ar    1  UNL1       -0.0019
@<TRIPOS>BOND
     1     9    10    1
     2    10    11    1
     3    11    12    1
     4    12     3    1
     5     3     4   ar
     6     4     5   ar
     7     5    13    1
     8    13    14    1
     9    13    15    1
    10    13    16    1
    11     5     6   ar
    12     6     7   ar
    13     7     2    1
    14     2     1    1
    15     1    17    1
    16    17    18    1
    17    18    25    1
    18    25    26   ar
    19    26    27   ar
    20    27    28   ar
    21    28    29    1
    22    28    30   ar
    23    30    31   ar
    24    18    19    1
    25    19    20    1
    26    20    21    1
    27    21    22    1
    28    21    23    1
    29    23    24    1
    30     7     8   ar
    31    12    10    1
    32     8     3   ar
    33    24    18    1
    34    31    25   ar
@<TRIPOS>MOLECULE
*****
 31 34 0 0 0
SMALL
GASTEIGER

@<TRIPOS>ATOM
      1 O         138.4995  139.1668  163.1503 O.3     1  UNL1       -0.3470
      2 C         138.5045  138.6749  164.5673 C.3     1  UNL1        0.1874
      3 C         140.3672  140.2557  167.6948 C.ar    1  UNL1        0.0583
      4 C         141.7942  139.9253  167.3716 C.ar    1  UNL1        0.0186
      5 C         142.1247  139.1782  166.1136 C.ar    1  UNL1        0.0738
      6 C         141.0281  138.7614  165.1788 C.ar    1  UNL1        0.0211
      7 C         139.6011  139.0917  165.5020 C.ar    1  UNL1        0.0883
      8 N         139.2707  139.8389  166.7600 N.ar    1  UNL1       -0.2515
      9 C         140.3502  143.7393  169.8531 C.3     1  UNL1        0.0004
     10 C         140.0305  142.2780  169.7428 C.3     1  UNL1        0.0059
     11 C         139.4706  141.0219  170.3417 C.3     1  UNL1        0.0063
     12 C         140.0368  141.0029  168.9528 C.3     1  UNL1        0.0403
     13 C         143.5517  138.8478  165.7903 C.3     1  UNL1        0.4187
     14 F         144.9787  138.5175  165.4670 F       1  UNL1       -0.1659
     15 F         143.4463  139.6367  164.5189 F       1  UNL1       -0.1659
     16 F         143.6572  138.0590  167.0617 F       1  UNL1       -0.1659
     17 C         138.7175  140.6224  162.8609 C.3     1  UNL1        0.1467
     18 C         140.0946  141.1262  162.5450 C.3     1  UNL1        0.0489
     19 C         140.0913  139.8577  161.7444 C.3     1  UNL1        0.0238
     20 C         141.3001  139.4727  160.9441 C.3     1  UNL1        0.0725
     21 N         142.5123  140.3562  160.9443 N.3     1  UNL1       -0.2715
     22 C         143.7211  139.9713  160.1440 C.3     1  UNL1        0.0896
     23 C         142.5156  141.6248  161.7448 C.3     1  UNL1        0.0725
     24 C         141.3068  142.0098  162.5451 C.3     1  UNL1        0.0238
     25 C         139.6197  142.2198  163.4552 C.ar    1  UNL1       -0.0202
     26 C         140.3832  142.5387  164.7064 C.ar    1  UNL1       -0.0019
     27 C         139.9081  143.6323  165.6165 C.ar    1  UNL1        0.0293
     28 C         138.6698  144.4070  165.2756 C.ar    1  UNL1        0.1401
     29 F         138.1948  145.5006  166.1859 F       1  UNL1       -0.2042
     30 C         137.9064  144.0881  164.0245 C.ar    1  UNL1        0.0293
     31 C         138.3813  142.9945  163.1142 C.ar    1  UNL1       -0.0019
@<TRIPOS>BOND
     1     9    10    1
     2    10    11    1
     3    11    12    1
     4    12     3    1
     5     3     4   ar
     6     4     5   ar
     7     5    13    1
     8    13    14    1
     9    13    15    1
    10    13    16    1
    11     5     6   ar
    12     6     7   ar
    13     7     2    1
    14     2     1    1
    15     1    17    1
    16    17    18    1
    17    18    25    1
    18    25    26   ar
    19    26    27   ar
    20    27    28   ar
    21    28    29    1
    22    28    30   ar
    23    30    31   ar
    24    18    19    1
    25    19    20    1
    26    20    21    1
    27    21    22    1
    28    21    23    1
    29    23    24    1
    30     7     8   ar
    31    12    10    1
    32     8     3   ar
    33    24    18    1
    34    31    25   ar
@<TRIPOS>MOLECULE
*****
 31 34 0 0 0
SMALL
GASTEIGER

@<TRIPOS>ATOM
      1 O         138.4845  138.6548  164.3300 O.3     1  UNL1       -0.3470
      2 C         138.9263  138.8199  165.7539 C.3     1  UNL1        0.1874
      3 C         142.5901  140.3428  165.6689 C.ar    1  UNL1        0.0583
      4 C         142.4799  141.4056  166.7216 C.ar    1  UNL1        0.0186
      5 C         141.1851  141.6065  167.4517 C.ar    1  UNL1        0.0738
      6 C         140.0006  140.7446  167.1292 C.ar    1  UNL1        0.0211
      7 C         140.1108  139.6818  166.0765 C.ar    1  UNL1        0.0883
      8 N         141.4056  139.4809  165.3463 N.ar    1  UNL1       -0.2515
      9 C         145.7292  141.8719  163.5236 C.3     1  UNL1        0.0004
     10 C         145.0339  140.7016  164.1535 C.3     1  UNL1        0.0059
     11 C         144.9786  139.2341  164.4592 C.3     1  UNL1        0.0063
     12 C         143.8849  140.1419  164.9387 C.3     1  UNL1        0.0403
     13 C         141.0748  142.6694  168.5045 C.3     1  UNL1        0.4187
     14 F         140.9645  143.7322  169.5572 F       1  UNL1       -0.1659
     15 F         142.0458  141.9173  169.3655 F       1  UNL1       -0.1659
     16 F         140.1037  143.4215  167.6435 F       1  UNL1       -0.1659
     17 C         138.1701  139.8623  163.4975 C.3     1  UNL1        0.1467
     18 C         139.1115  140.2896  162.4106 C.3     1  UNL1        0.0489
     19 C         138.8685  138.8673  162.0005 C.3     1  UNL1        0.0238
     20 C         139.5377  138.3147  160.7771 C.3     1  UNL1        0.0725
     21 N         140.4499  139.1844  159.9637 N.3     1  UNL1       -0.2715
     22 C         141.1192  138.6319  158.7403 C.3     1  UNL1        0.0896
     23 C         140.6929  140.6067  160.3738 C.3     1  UNL1        0.0725
     24 C         140.0237  141.1592  161.5972 C.3     1  UNL1        0.0238
     25 C         139.0275  141.5634  163.1981 C.ar    1  UNL1       -0.0202
     26 C         140.2771  142.3241  163.5294 C.ar    1  UNL1       -0.0019
     27 C         140.1931  143.5980  164.3170 C.ar    1  UNL1        0.0293
     28 C         138.8595  144.1111  164.7732 C.ar    1  UNL1        0.1401
     29 F         138.7755  145.3851  165.5608 F       1  UNL1       -0.2042
     30 C         137.6099  143.3505  164.4419 C.ar    1  UNL1        0.0293
     31 C         137.6939  142.0766  163.6543 C.ar    1  UNL1       -0.0019
@<TRIPOS>BOND
     1     9    10    1
     2    10    11    1
     3    11    12    1
     4    12     3    1
     5     3     4   ar
     6     4     5   ar
     7     5    13    1
     8    13    14    1
     9    13    15    1
    10    13    16    1
    11     5     6   ar
    12     6     7   ar
    13     7     2    1
    14     2     1    1
    15     1    17    1
    16    17    18    1
    17    18    25    1
    18    25    26   ar
    19    26    27   ar
    20    27    28   ar
    21    28    29    1
    22    28    30   ar
    23    30    31   ar
    24    18    19    1
    25    19    20    1
    26    20    21    1
    27    21    22    1
    28    21    23    1
    29    23    24    1
    30     7     8   ar
    31    12    10    1
    32     8     3   ar
    33    24    18    1
    34    31    25   ar
@<TRIPOS>MOLECULE
*****
 31 34 0 0 0
SMALL
GASTEIGER

@<TRIPOS>ATOM
      1 O         142.5985  138.1685  164.1599 O.3     1  UNL1       -0.3470
      2 C         141.3314  138.6725  164.7846 C.3     1  UNL1        0.1874
      3 C         140.3481  142.4068  165.7004 C.ar    1  UNL1        0.0583
      4 C         141.2760  142.6707  166.8491 C.ar    1  UNL1        0.0186
      5 C         142.2223  141.6018  167.3095 C.ar    1  UNL1        0.0738
      6 C         142.2407  140.2691  166.6214 C.ar    1  UNL1        0.0211
      7 C         141.3129  140.0052  165.4728 C.ar    1  UNL1        0.0883
      8 N         140.3666  141.0741  165.0123 N.ar    1  UNL1       -0.2515
      9 C         137.7523  143.8791  162.8919 C.3     1  UNL1        0.0004
     10 C         138.4516  144.0145  164.2119 C.3     1  UNL1        0.0059
     11 C         138.7129  144.7879  165.4702 C.3     1  UNL1        0.0063
     12 C         139.4018  143.4756  165.2399 C.3     1  UNL1        0.0403
     13 C         143.1502  141.8657  168.4583 C.3     1  UNL1        0.4187
     14 F         144.0780  142.1295  169.6069 F       1  UNL1       -0.1659
     15 F         142.3957  140.8756  169.2951 F       1  UNL1       -0.1659
     16 F         143.9047  142.8558  167.6214 F       1  UNL1       -0.1659
     17 C         143.5870  139.1376  163.5822 C.3     1  UNL1        0.1467
     18 C         143.4339  139.6112  162.1671 C.3     1  UNL1        0.0489
     19 C         143.2844  138.1324  161.9646 C.3     1  UNL1        0.0238
     20 C         143.0523  137.5837  160.5881 C.3     1  UNL1        0.0725
     21 N         142.9695  138.5136  159.4140 N.3     1  UNL1       -0.2715
     22 C         142.7373  137.9649  158.0374 C.3     1  UNL1        0.0896
     23 C         143.1190  139.9924  159.6166 C.3     1  UNL1        0.0725
     24 C         143.3511  140.5411  160.9931 C.3     1  UNL1        0.0238
     25 C         143.6365  140.9254  162.8611 C.ar    1  UNL1       -0.0202
     26 C         142.7100  142.0717  162.5820 C.ar    1  UNL1       -0.0019
     27 C         142.9127  143.3859  163.2761 C.ar    1  UNL1        0.0293
     28 C         144.0418  143.5540  164.2492 C.ar    1  UNL1        0.1401
     29 F         144.2444  144.8683  164.9432 F       1  UNL1       -0.2042
     30 C         144.9682  142.4078  164.5282 C.ar    1  UNL1        0.0293
     31 C         144.7656  141.0935  163.8342 C.ar    1  UNL1       -0.0019
@<TRIPOS>BOND
     1     9    10    1
     2    10    11    1
     3    11    12    1
     4    12     3    1
     5     3     4   ar
     6     4     5   ar
     7     5    13    1
     8    13    14    1
     9    13    15    1
    10    13    16    1
    11     5     6   ar
    12     6     7   ar
    13     7     2    1
    14     2     1    1
    15     1    17    1
    16    17    18    1
    17    18    25    1
    18    25    26   ar
    19    26    27   ar
    20    27    28   ar
    21    28    29    1
    22    28    30   ar
    23    30    31   ar
    24    18    19    1
    25    19    20    1
    26    20    21    1
    27    21    22    1
    28    21    23    1
    29    23    24    1
    30     7     8   ar
    31    12    10    1
    32     8     3   ar
    33    24    18    1
    34    31    25   ar
@<TRIPOS>MOLECULE
*****
 31 34 0 0 0
SMALL
GASTEIGER

@<TRIPOS>ATOM
      1 O         138.7650  144.8204  162.2196 O.3     1  UNL1       -0.3470
      2 C         137.7792  144.0809  163.0748 C.3     1  UNL1        0.1874
      3 C         139.0273  141.1506  165.4423 C.ar    1  UNL1        0.0583
      4 C         138.7565  139.9540  164.5793 C.ar    1  UNL1        0.0186
      5 C         138.1599  140.1331  163.2148 C.ar    1  UNL1        0.0738
      6 C         137.8342  141.5087  162.7132 C.ar    1  UNL1        0.0211
      7 C         138.1050  142.7053  163.5763 C.ar    1  UNL1        0.0883
      8 N         138.7015  142.5262  164.9408 N.ar    1  UNL1       -0.2515
      9 C         140.9340  142.7147  168.7153 C.3     1  UNL1        0.0004
     10 C         140.3217  141.5441  168.0049 C.3     1  UNL1        0.0059
     11 C         139.9592  140.0889  167.9725 C.3     1  UNL1        0.0063
     12 C         139.6238  140.9716  166.8069 C.3     1  UNL1        0.0403
     13 C         137.8891  138.9365  162.3516 C.3     1  UNL1        0.4187
     14 F         137.6183  137.7399  161.4886 F       1  UNL1       -0.1659
     15 F         138.4533  138.0418  163.4152 F       1  UNL1       -0.1659
     16 F         137.3249  139.8312  161.2881 F       1  UNL1       -0.1659
     17 C         140.2331  144.7219  162.5113 C.3     1  UNL1        0.1467
     18 C         141.1827  144.2776  161.4385 C.3     1  UNL1        0.0489
     19 C         140.4144  145.3253  160.6887 C.3     1  UNL1        0.0238
     20 C         140.7480  145.6185  159.2560 C.3     1  UNL1        0.0725
     21 N         141.8499  144.8639  158.5730 N.3     1  UNL1       -0.2715
     22 C         142.1836  145.1570  157.1402 C.3     1  UNL1        0.0896
     23 C         142.6182  143.8162  159.3227 C.3     1  UNL1        0.0725
     24 C         142.2846  143.5231  160.7555 C.3     1  UNL1        0.0238
     25 C         141.6212  143.3842  162.5608 C.ar    1  UNL1       -0.0202
     26 C         141.6961  141.9006  162.3529 C.ar    1  UNL1       -0.0019
     27 C         142.1345  141.0073  163.4753 C.ar    1  UNL1        0.0293
     28 C         142.4981  141.5975  164.8055 C.ar    1  UNL1        0.1401
     29 F         142.9366  140.7041  165.9278 F       1  UNL1       -0.2042
     30 C         142.4232  143.0810  165.0133 C.ar    1  UNL1        0.0293
     31 C         141.9847  143.9745  163.8910 C.ar    1  UNL1       -0.0019
@<TRIPOS>BOND
     1     9    10    1
     2    10    11    1
     3    11    12    1
     4    12     3    1
     5     3     4   ar
     6     4     5   ar
     7     5    13    1
     8    13    14    1
     9    13    15    1
    10    13    16    1
    11     5     6   ar
    12     6     7   ar
    13     7     2    1
    14     2     1    1
    15     1    17    1
    16    17    18    1
    17    18    25    1
    18    25    26   ar
    19    26    27   ar
    20    27    28   ar
    21    28    29    1
    22    28    30   ar
    23    30    31   ar
    24    18    19    1
    25    19    20    1
    26    20    21    1
    27    21    22    1
    28    21    23    1
    29    23    24    1
    30     7     8   ar
    31    12    10    1
    32     8     3   ar
    33    24    18    1
    34    31    25   ar
