@<TRIPOS>MOLECULE
*****
 31 33 0 0 0
SMALL
GASTEIGER

@<TRIPOS>ATOM
      1 C         140.1358  140.4071  167.7844 C.ar    1  UNL1        0.0555
      2 C         140.6128  140.3521  166.3633 C.ar    1  UNL1        0.0168
      3 C         139.7979  139.6384  165.3258 C.ar    1  UNL1        0.0505
      4 C         138.5060  138.9797  165.7093 C.ar    1  UNL1        0.0170
      5 C         138.0290  139.0347  167.1303 C.ar    1  UNL1        0.0307
      6 C         138.8439  139.7484  168.1679 C.ar    1  UNL1        0.1402
      7 F         138.3668  139.8034  169.5890 F       1  UNL1       -0.2044
      8 C         140.1871  142.2780  168.2491 C.3     1  UNL1        0.0638
      9 C         140.9507  141.1208  168.8220 C.3     1  UNL1        0.2513
     10 N         141.4312  139.7159  169.0345 N.2     1  UNL1       -0.0663
     11 C         142.4614  139.4265  170.0856 C.2     1  UNL1        0.3195
     12 N         142.9420  138.0215  170.2980 N.pl3   1  UNL1       -0.2480
     13 C         143.0111  140.5422  170.9242 C.3     1  UNL1        0.2611
     14 O         142.5306  141.9471  170.7118 O.3     1  UNL1       -0.3108
     15 C         141.5003  142.2365  169.6606 C.3     1  UNL1        0.3281
     16 F         141.0197  143.6414  169.4481 F       1  UNL1       -0.1989
     17 H         142.5812  137.2893  169.7476 H       1  UNL1        0.2882
     18 H         143.6182  137.8316  170.9879 H       1  UNL1        0.2882
     19 N         140.2749  139.5834  163.9047 N.am    1  UNL1       -0.2791
     20 C         141.0507  138.3948  163.4195 C.2     1  UNL1        0.2695
     21 O         141.3494  137.2612  164.3554 O.2     1  UNL1       -0.2681
     22 H         140.0788  140.3274  163.2904 H       1  UNL1        0.1552
     23 C         141.5277  138.3397  161.9984 C.ar    1  UNL1        0.1621
     24 N         140.5367  138.3730  160.8728 N.ar    1  UNL1       -0.2363
     25 C         141.0138  138.3180  159.4517 C.ar    1  UNL1        0.1094
     26 C         142.4817  138.2296  159.1563 C.ar    1  UNL1        0.0898
     27 C         143.4727  138.1963  160.2819 C.ar    1  UNL1        0.0432
     28 C         142.9957  138.2513  161.7029 C.ar    1  UNL1        0.1628
     29 F         143.9866  138.2180  162.8285 F       1  UNL1       -0.2024
     30 C         142.9587  138.1745  157.7353 C.1     1  UNL1        0.1021
     31 N         143.4358  138.1195  156.3141 N.1     1  UNL1       -0.1908
@<TRIPOS>BOND
     1     9     8    1
     2     9     1    1
     3     1     2   ar
     4     2     3   ar
     5     3    19    1
     6    19    20   am
     7    20    21    2
     8    20    23    1
     9    23    24   ar
    10    24    25   ar
    11    25    26   ar
    12    26    30    1
    13    30    31    3
    14    26    27   ar
    15    27    28   ar
    16    28    29    1
    17     3     4   ar
    18     4     5   ar
    19     5     6   ar
    20     6     7    1
    21     9    10    1
    22    10    11    2
    23    11    12    1
    24    11    13    1
    25    13    14    1
    26    14    15    1
    27    15    16    1
    28    15     9    1
    29     6     1   ar
    30    28    23   ar
    31    19    22    1
    32    12    17    1
    33    12    18    1
@<TRIPOS>MOLECULE
*****
 31 33 0 0 0
SMALL
GASTEIGER

@<TRIPOS>ATOM
      1 C         141.5414  140.3722  167.4262 C.ar    1  UNL1        0.0555
      2 C         141.1500  141.1136  166.1824 C.ar    1  UNL1        0.0168
      3 C         141.8009  140.7782  164.8733 C.ar    1  UNL1        0.0505
      4 C         142.8432  139.7014  164.8080 C.ar    1  UNL1        0.0170
      5 C         143.2345  138.9600  166.0518 C.ar    1  UNL1        0.0307
      6 C         142.5836  139.2954  167.3609 C.ar    1  UNL1        0.1402
      7 F         142.9750  138.5540  168.6049 F       1  UNL1       -0.2044
      8 C         139.8056  139.8825  168.1089 C.3     1  UNL1        0.0638
      9 C         140.8905  140.7076  168.7354 C.3     1  UNL1        0.2513
     10 N         142.2013  141.4161  168.9072 N.2     1  UNL1       -0.0663
     11 C         142.4845  142.1735  170.1706 C.2     1  UNL1        0.3195
     12 N         143.7955  142.8821  170.3424 N.pl3   1  UNL1       -0.2480
     13 C         141.4568  142.2223  171.2622 C.3     1  UNL1        0.2611
     14 O         140.1460  141.5138  171.0904 O.3     1  UNL1       -0.3108
     15 C         139.8628  140.7564  169.8270 C.3     1  UNL1        0.3281
     16 F         138.5519  140.0478  169.6551 F       1  UNL1       -0.1989
     17 H         144.4699  142.8500  169.6259 H       1  UNL1        0.2882
     18 H         143.9814  143.3792  171.1716 H       1  UNL1        0.2882
     19 N         141.4096  141.5195  163.6294 N.am    1  UNL1       -0.2791
     20 C         141.9316  142.9046  163.3862 C.2     1  UNL1        0.2695
     21 O         142.8450  143.5483  164.3871 O.2     1  UNL1       -0.2681
     22 H         140.8102  141.0971  162.9725 H       1  UNL1        0.1552
     23 C         141.5403  143.6460  162.1424 C.ar    1  UNL1        0.1621
     24 N         142.1431  143.2667  160.8223 N.ar    1  UNL1       -0.2363
     25 C         141.7518  144.0082  159.5784 C.ar    1  UNL1        0.1094
     26 C         140.7577  145.1288  159.6547 C.ar    1  UNL1        0.0898
     27 C         140.1549  145.5081  160.9748 C.ar    1  UNL1        0.0432
     28 C         140.5462  144.7667  162.2187 C.ar    1  UNL1        0.1628
     29 F         139.9434  145.1460  163.5388 F       1  UNL1       -0.2024
     30 C         140.3664  145.8702  158.4108 C.1     1  UNL1        0.1021
     31 N         139.9751  146.6116  157.1669 N.1     1  UNL1       -0.1908
@<TRIPOS>BOND
     1     9     8    1
     2     9     1    1
     3     1     2   ar
     4     2     3   ar
     5     3    19    1
     6    19    20   am
     7    20    21    2
     8    20    23    1
     9    23    24   ar
    10    24    25   ar
    11    25    26   ar
    12    26    30    1
    13    30    31    3
    14    26    27   ar
    15    27    28   ar
    16    28    29    1
    17     3     4   ar
    18     4     5   ar
    19     5     6   ar
    20     6     7    1
    21     9    10    1
    22    10    11    2
    23    11    12    1
    24    11    13    1
    25    13    14    1
    26    14    15    1
    27    15    16    1
    28    15     9    1
    29     6     1   ar
    30    28    23   ar
    31    19    22    1
    32    12    17    1
    33    12    18    1
@<TRIPOS>MOLECULE
*****
 31 33 0 0 0
SMALL
GASTEIGER

@<TRIPOS>ATOM
      1 C         142.0988  140.9100  167.5976 C.ar    1  UNL1        0.0555
      2 C         141.6482  141.6731  166.3874 C.ar    1  UNL1        0.0168
      3 C         141.6814  141.0234  165.0359 C.ar    1  UNL1        0.0505
      4 C         142.1652  139.6106  164.8945 C.ar    1  UNL1        0.0170
      5 C         142.6158  138.8475  166.1047 C.ar    1  UNL1        0.0307
      6 C         142.5826  139.4972  167.4562 C.ar    1  UNL1        0.1402
      7 F         143.0332  138.7341  168.6665 F       1  UNL1       -0.2044
      8 C         143.3828  142.0717  168.4464 C.3     1  UNL1        0.0638
      9 C         142.0656  141.5596  168.9493 C.3     1  UNL1        0.2513
     10 N         140.7599  140.8220  168.9827 N.2     1  UNL1       -0.0663
     11 C         139.8785  140.9118  170.1931 C.2     1  UNL1        0.3195
     12 N         138.5728  140.1742  170.2265 N.pl3   1  UNL1       -0.2480
     13 C         140.3028  141.7393  171.3701 C.3     1  UNL1        0.2611
     14 O         141.6085  142.4770  171.3366 O.3     1  UNL1       -0.3108
     15 C         142.4899  142.3871  170.1263 C.3     1  UNL1        0.3281
     16 F         143.7955  143.1247  170.0927 F       1  UNL1       -0.1989
     17 H         138.2944  139.6311  169.4540 H       1  UNL1        0.2882
     18 H         137.9943  140.2331  171.0209 H       1  UNL1        0.2882
     19 N         141.2308  141.7865  163.8256 N.am    1  UNL1       -0.2791
     20 C         142.1742  142.7294  163.1393 C.2     1  UNL1        0.2695
     21 O         143.5682  142.9092  163.6634 O.2     1  UNL1       -0.2681
     22 H         140.3159  141.6685  163.4817 H       1  UNL1        0.1552
     23 C         141.7237  143.4925  161.9291 C.ar    1  UNL1        0.1621
     24 N         142.1185  143.0269  160.5590 N.ar    1  UNL1       -0.2363
     25 C         141.6679  143.7900  159.3487 C.ar    1  UNL1        0.1094
     26 C         140.8226  145.0188  159.5087 C.ar    1  UNL1        0.0898
     27 C         140.4278  145.4844  160.8788 C.ar    1  UNL1        0.0432
     28 C         140.8783  144.7213  162.0890 C.ar    1  UNL1        0.1628
     29 F         140.4835  145.1870  163.4592 F       1  UNL1       -0.2024
     30 C         140.3720  145.7819  158.2984 C.1     1  UNL1        0.1021
     31 N         139.9215  146.5450  157.0881 N.1     1  UNL1       -0.1908
@<TRIPOS>BOND
     1     9     8    1
     2     9     1    1
     3     1     2   ar
     4     2     3   ar
     5     3    19    1
     6    19    20   am
     7    20    21    2
     8    20    23    1
     9    23    24   ar
    10    24    25   ar
    11    25    26   ar
    12    26    30    1
    13    30    31    3
    14    26    27   ar
    15    27    28   ar
    16    28    29    1
    17     3     4   ar
    18     4     5   ar
    19     5     6   ar
    20     6     7    1
    21     9    10    1
    22    10    11    2
    23    11    12    1
    24    11    13    1
    25    13    14    1
    26    14    15    1
    27    15    16    1
    28    15     9    1
    29     6     1   ar
    30    28    23   ar
    31    19    22    1
    32    12    17    1
    33    12    18    1
@<TRIPOS>MOLECULE
*****
 31 33 0 0 0
SMALL
GASTEIGER

@<TRIPOS>ATOM
      1 C         140.3402  140.4771  166.2772 C.ar    1  UNL1        0.0555
      2 C         140.6265  141.1086  164.9471 C.ar    1  UNL1        0.0168
      3 C         139.5908  141.0752  163.8626 C.ar    1  UNL1        0.0505
      4 C         138.2688  140.4104  164.1082 C.ar    1  UNL1        0.0170
      5 C         137.9825  139.7789  165.4383 C.ar    1  UNL1        0.0307
      6 C         139.0182  139.8123  166.5228 C.ar    1  UNL1        0.1402
      7 F         138.7319  139.1808  167.8530 F       1  UNL1       -0.2044
      8 C         141.8102  139.2784  166.6247 C.3     1  UNL1        0.0638
      9 C         141.3759  140.5105  167.3618 C.3     1  UNL1        0.2513
     10 N         140.5819  141.7309  167.7222 N.2     1  UNL1       -0.0663
     11 C         140.9744  142.5569  168.9112 C.2     1  UNL1        0.3195
     12 N         140.1804  143.7774  169.2717 N.pl3   1  UNL1       -0.2480
     13 C         142.1610  142.1623  169.7398 C.3     1  UNL1        0.2611
     14 O         142.9550  140.9418  169.3794 O.3     1  UNL1       -0.3108
     15 C         142.5624  140.1159  168.1904 C.3     1  UNL1        0.3281
     16 F         143.3564  138.8954  167.8298 F       1  UNL1       -0.1989
     17 H         139.4016  144.0364  168.7279 H       1  UNL1        0.2882
     18 H         140.4380  144.3195  170.0521 H       1  UNL1        0.2882
     19 N         139.8771  141.7067  162.5324 N.am    1  UNL1       -0.2791
     20 C         139.4394  143.1156  162.2613 C.2     1  UNL1        0.2695
     21 O         138.7154  143.8930  163.3204 O.2     1  UNL1       -0.2681
     22 H         140.3522  141.1965  161.8373 H       1  UNL1        0.1552
     23 C         139.7256  143.7471  160.9312 C.ar    1  UNL1        0.1621
     24 N         139.1422  143.1591  159.6807 N.ar    1  UNL1       -0.2363
     25 C         139.4285  143.7906  158.3505 C.ar    1  UNL1        0.1094
     26 C         140.2981  145.0102  158.2710 C.ar    1  UNL1        0.0898
     27 C         140.8815  145.5983  159.5215 C.ar    1  UNL1        0.0432
     28 C         140.5953  144.9668  160.8516 C.ar    1  UNL1        0.1628
     29 F         141.1786  145.5548  162.1022 F       1  UNL1       -0.2024
     30 C         140.5844  145.6417  156.9409 C.1     1  UNL1        0.1021
     31 N         140.8706  146.2732  155.6107 N.1     1  UNL1       -0.1908
@<TRIPOS>BOND
     1     9     8    1
     2     9     1    1
     3     1     2   ar
     4     2     3   ar
     5     3    19    1
     6    19    20   am
     7    20    21    2
     8    20    23    1
     9    23    24   ar
    10    24    25   ar
    11    25    26   ar
    12    26    30    1
    13    30    31    3
    14    26    27   ar
    15    27    28   ar
    16    28    29    1
    17     3     4   ar
    18     4     5   ar
    19     5     6   ar
    20     6     7    1
    21     9    10    1
    22    10    11    2
    23    11    12    1
    24    11    13    1
    25    13    14    1
    26    14    15    1
    27    15    16    1
    28    15     9    1
    29     6     1   ar
    30    28    23   ar
    31    19    22    1
    32    12    17    1
    33    12    18    1
@<TRIPOS>MOLECULE
*****
 31 33 0 0 0
SMALL
GASTEIGER

@<TRIPOS>ATOM
      1 C         142.1313  141.6164  167.5637 C.ar    1  UNL1        0.0555
      2 C         141.4335  141.2521  166.2868 C.ar    1  UNL1        0.0168
      3 C         142.0028  141.6899  164.9699 C.ar    1  UNL1        0.0505
      4 C         143.2697  142.4919  164.9298 C.ar    1  UNL1        0.0170
      5 C         143.9675  142.8561  166.2067 C.ar    1  UNL1        0.0307
      6 C         143.3982  142.4184  167.5236 C.ar    1  UNL1        0.1402
      7 F         144.0960  142.7826  168.8006 F       1  UNL1       -0.2044
      8 C         142.1507  139.8826  168.4076 C.3     1  UNL1        0.0638
      9 C         141.5620  141.1786  168.8807 C.3     1  UNL1        0.2513
     10 N         141.1711  142.6266  168.8963 N.2     1  UNL1       -0.0663
     11 C         140.4154  143.1869  170.0647 C.2     1  UNL1        0.3195
     12 N         140.0244  144.6350  170.0803 N.pl3   1  UNL1       -0.2480
     13 C         140.0506  142.2990  171.2174 C.3     1  UNL1        0.2611
     14 O         140.4416  140.8509  171.2017 O.3     1  UNL1       -0.3108
     15 C         141.1973  140.2907  170.0334 C.3     1  UNL1        0.3281
     16 F         141.5883  138.8427  170.0176 F       1  UNL1       -0.1989
     17 H         140.2638  145.2177  169.3238 H       1  UNL1        0.2882
     18 H         139.5284  145.0027  170.8471 H       1  UNL1        0.2882
     19 N         141.3050  141.3256  163.6929 N.am    1  UNL1       -0.2791
     20 C         140.3465  142.2906  163.0604 C.2     1  UNL1        0.2695
     21 O         140.0858  143.6198  163.7048 O.2     1  UNL1       -0.2681
     22 H         141.4762  140.4532  163.2700 H       1  UNL1        0.1552
     23 C         139.6488  141.9264  161.7835 C.ar    1  UNL1        0.1621
     24 N         138.8590  140.6541  161.6969 N.ar    1  UNL1       -0.2363
     25 C         138.1613  140.2899  160.4199 C.ar    1  UNL1        0.1094
     26 C         138.2533  141.1980  159.2296 C.ar    1  UNL1        0.0898
     27 C         139.0431  142.4704  159.3162 C.ar    1  UNL1        0.0432
     28 C         139.7408  142.8345  160.5931 C.ar    1  UNL1        0.1628
     29 F         140.5306  144.1068  160.6797 F       1  UNL1       -0.2024
     30 C         137.5556  140.8339  157.9527 C.1     1  UNL1        0.1021
     31 N         136.8578  140.4697  156.6758 N.1     1  UNL1       -0.1908
@<TRIPOS>BOND
     1     9     8    1
     2     9     1    1
     3     1     2   ar
     4     2     3   ar
     5     3    19    1
     6    19    20   am
     7    20    21    2
     8    20    23    1
     9    23    24   ar
    10    24    25   ar
    11    25    26   ar
    12    26    30    1
    13    30    31    3
    14    26    27   ar
    15    27    28   ar
    16    28    29    1
    17     3     4   ar
    18     4     5   ar
    19     5     6   ar
    20     6     7    1
    21     9    10    1
    22    10    11    2
    23    11    12    1
    24    11    13    1
    25    13    14    1
    26    14    15    1
    27    15    16    1
    28    15     9    1
    29     6     1   ar
    30    28    23   ar
    31    19    22    1
    32    12    17    1
    33    12    18    1
@<TRIPOS>MOLECULE
*****
 31 33 0 0 0
SMALL
GASTEIGER

@<TRIPOS>ATOM
      1 C         140.5674  140.4100  167.2708 C.ar    1  UNL1        0.0555
      2 C         141.3843  140.4126  166.0128 C.ar    1  UNL1        0.0168
      3 C         140.8904  139.6872  164.7963 C.ar    1  UNL1        0.0505
      4 C         139.5795  138.9593  164.8378 C.ar    1  UNL1        0.0170
      5 C         138.7626  138.9567  166.0958 C.ar    1  UNL1        0.0307
      6 C         139.2565  139.6821  167.3123 C.ar    1  UNL1        0.1402
      7 F         138.4396  139.6795  168.5704 F       1  UNL1       -0.2044
      8 C         140.3596  142.2578  167.7818 C.3     1  UNL1        0.0638
      9 C         141.0613  141.1354  168.4873 C.3     1  UNL1        0.2513
     10 N         141.5915  139.7611  168.7703 N.2     1  UNL1       -0.0663
     11 C         142.3719  139.5019  170.0249 C.2     1  UNL1        0.3195
     12 N         142.9022  138.1276  170.3079 N.pl3   1  UNL1       -0.2480
     13 C         142.6221  140.6172  170.9963 C.3     1  UNL1        0.2611
     14 O         142.0919  141.9914  170.7133 O.3     1  UNL1       -0.3108
     15 C         141.3115  142.2506  169.4588 C.3     1  UNL1        0.3281
     16 F         140.7813  143.6249  169.1757 F       1  UNL1       -0.1989
     17 H         142.7379  137.3957  169.6702 H       1  UNL1        0.2882
     18 H         143.4144  137.9575  171.1312 H       1  UNL1        0.2882
     19 N         141.7073  139.6898  163.5383 N.am    1  UNL1       -0.2791
     20 C         141.4188  140.6904  162.4587 C.2     1  UNL1        0.2695
     21 O         140.3133  141.6885  162.6372 O.2     1  UNL1       -0.2681
     22 H         142.4329  139.0347  163.4211 H       1  UNL1        0.1552
     23 C         142.2357  140.6930  161.2007 C.ar    1  UNL1        0.1621
     24 N         143.0922  141.8778  160.8650 N.ar    1  UNL1       -0.2363
     25 C         143.9091  141.8803  159.6069 C.ar    1  UNL1        0.1094
     26 C         143.8695  140.6981  158.6846 C.ar    1  UNL1        0.0898
     27 C         143.0129  139.5133  159.0202 C.ar    1  UNL1        0.0432
     28 C         142.1960  139.5107  160.2782 C.ar    1  UNL1        0.1628
     29 F         141.3395  138.3260  160.6139 F       1  UNL1       -0.2024
     30 C         144.6863  140.7007  157.4265 C.1     1  UNL1        0.1021
     31 N         145.5032  140.7032  156.1684 N.1     1  UNL1       -0.1908
@<TRIPOS>BOND
     1     9     8    1
     2     9     1    1
     3     1     2   ar
     4     2     3   ar
     5     3    19    1
     6    19    20   am
     7    20    21    2
     8    20    23    1
     9    23    24   ar
    10    24    25   ar
    11    25    26   ar
    12    26    30    1
    13    30    31    3
    14    26    27   ar
    15    27    28   ar
    16    28    29    1
    17     3     4   ar
    18     4     5   ar
    19     5     6   ar
    20     6     7    1
    21     9    10    1
    22    10    11    2
    23    11    12    1
    24    11    13    1
    25    13    14    1
    26    14    15    1
    27    15    16    1
    28    15     9    1
    29     6     1   ar
    30    28    23   ar
    31    19    22    1
    32    12    17    1
    33    12    18    1
@<TRIPOS>MOLECULE
*****
 31 33 0 0 0
SMALL
GASTEIGER

@<TRIPOS>ATOM
      1 C         140.3724  141.3179  167.6735 C.ar    1  UNL1        0.0555
      2 C         140.8264  141.8679  166.3539 C.ar    1  UNL1        0.0168
      3 C         140.2642  141.3155  165.0778 C.ar    1  UNL1        0.0505
      4 C         139.2479  140.2131  165.1211 C.ar    1  UNL1        0.0170
      5 C         138.7939  139.6631  166.4407 C.ar    1  UNL1        0.0307
      6 C         139.3561  140.2155  167.7169 C.ar    1  UNL1        0.1402
      7 F         138.9021  139.6655  169.0365 F       1  UNL1       -0.2044
      8 C         140.2320  143.0877  168.4262 C.3     1  UNL1        0.0638
      9 C         140.9347  141.8702  168.9498 C.3     1  UNL1        0.2513
     10 N         141.4420  140.4610  169.0301 N.2     1  UNL1       -0.0663
     11 C         142.2676  140.0269  170.2048 C.2     1  UNL1        0.3195
     12 N         142.7750  138.6175  170.2850 N.pl3   1  UNL1       -0.2480
     13 C         142.5859  141.0021  171.2992 C.3     1  UNL1        0.2611
     14 O         142.0785  142.4114  171.2189 O.3     1  UNL1       -0.3108
     15 C         141.2529  142.8455  170.0442 C.3     1  UNL1        0.3281
     16 F         140.7454  144.2547  169.9638 F       1  UNL1       -0.1989
     17 H         142.5662  137.9775  169.5667 H       1  UNL1        0.2882
     18 H         143.3169  138.3326  171.0560 H       1  UNL1        0.2882
     19 N         140.7182  141.8655  163.7581 N.am    1  UNL1       -0.2791
     20 C         139.9096  142.9241  163.0686 C.2     1  UNL1        0.2695
     21 O         138.6469  143.4328  163.6988 O.2     1  UNL1       -0.2681
     22 H         141.5469  141.5316  163.3445 H       1  UNL1        0.1552
     23 C         140.3636  143.4742  161.7490 C.ar    1  UNL1        0.1621
     24 N         140.9722  142.5619  160.7256 N.ar    1  UNL1       -0.2363
     25 C         141.4261  143.1120  159.4060 C.ar    1  UNL1        0.1094
     26 C         141.2715  144.5742  159.1098 C.ar    1  UNL1        0.0898
     27 C         140.6629  145.4865  160.1332 C.ar    1  UNL1        0.0432
     28 C         140.2089  144.9365  161.4528 C.ar    1  UNL1        0.1628
     29 F         139.6003  145.8488  162.4762 F       1  UNL1       -0.2024
     30 C         141.7255  145.1243  157.7902 C.1     1  UNL1        0.1021
     31 N         142.1795  145.6743  156.4706 N.1     1  UNL1       -0.1908
@<TRIPOS>BOND
     1     9     8    1
     2     9     1    1
     3     1     2   ar
     4     2     3   ar
     5     3    19    1
     6    19    20   am
     7    20    21    2
     8    20    23    1
     9    23    24   ar
    10    24    25   ar
    11    25    26   ar
    12    26    30    1
    13    30    31    3
    14    26    27   ar
    15    27    28   ar
    16    28    29    1
    17     3     4   ar
    18     4     5   ar
    19     5     6   ar
    20     6     7    1
    21     9    10    1
    22    10    11    2
    23    11    12    1
    24    11    13    1
    25    13    14    1
    26    14    15    1
    27    15    16    1
    28    15     9    1
    29     6     1   ar
    30    28    23   ar
    31    19    22    1
    32    12    17    1
    33    12    18    1
@<TRIPOS>MOLECULE
*****
 31 33 0 0 0
SMALL
GASTEIGER

@<TRIPOS>ATOM
      1 C         141.2841  142.0180  167.3088 C.ar    1  UNL1        0.0555
      2 C         141.7522  141.3211  166.0658 C.ar    1  UNL1        0.0168
      3 C         141.2749  141.7844  164.7214 C.ar    1  UNL1        0.0505
      4 C         140.3296  142.9446  164.6200 C.ar    1  UNL1        0.0170
      5 C         139.8615  143.6415  165.8630 C.ar    1  UNL1        0.0307
      6 C         140.3388  143.1782  167.2074 C.ar    1  UNL1        0.1402
      7 F         139.8707  143.8751  168.4506 F       1  UNL1       -0.2044
      8 C         143.0034  142.2326  168.1555 C.3     1  UNL1        0.0638
      9 C         141.7614  141.5547  168.6534 C.3     1  UNL1        0.2513
     10 N         140.3537  141.0376  168.6843 N.2     1  UNL1       -0.0663
     11 C         139.8546  140.2927  169.8868 C.2     1  UNL1        0.3195
     12 N         138.4468  139.7757  169.9177 N.pl3   1  UNL1       -0.2480
     13 C         140.7632  140.0649  171.0584 C.3     1  UNL1        0.2611
     14 O         142.1709  140.5820  171.0274 O.3     1  UNL1       -0.3108
     15 C         142.6700  141.3269  169.8249 C.3     1  UNL1        0.3281
     16 F         144.0777  141.8440  169.7939 F       1  UNL1       -0.1989
     17 H         137.8505  139.9252  169.1488 H       1  UNL1        0.2882
     18 H         138.1192  139.2868  170.7069 H       1  UNL1        0.2882
     19 N         141.7430  141.0875  163.4782 N.am    1  UNL1       -0.2791
     20 C         140.8852  140.0353  162.8401 C.2     1  UNL1        0.2695
     21 O         139.5594  139.6801  163.4451 O.2     1  UNL1       -0.2681
     22 H         142.6132  141.3206  163.0812 H       1  UNL1        0.1552
     23 C         141.3532  139.3384  161.5970 C.ar    1  UNL1        0.1621
     24 N         140.7349  139.6726  160.2719 N.ar    1  UNL1       -0.2363
     25 C         141.2030  138.9757  159.0288 C.ar    1  UNL1        0.1094
     26 C         142.2893  137.9446  159.1109 C.ar    1  UNL1        0.0898
     27 C         142.9076  137.6104  160.4360 C.ar    1  UNL1        0.0432
     28 C         142.4396  138.3073  161.6791 C.ar    1  UNL1        0.1628
     29 F         143.0579  137.9731  163.0042 F       1  UNL1       -0.2024
     30 C         142.7573  137.2477  157.8678 C.1     1  UNL1        0.1021
     31 N         143.2254  136.5508  156.6247 N.1     1  UNL1       -0.1908
@<TRIPOS>BOND
     1     9     8    1
     2     9     1    1
     3     1     2   ar
     4     2     3   ar
     5     3    19    1
     6    19    20   am
     7    20    21    2
     8    20    23    1
     9    23    24   ar
    10    24    25   ar
    11    25    26   ar
    12    26    30    1
    13    30    31    3
    14    26    27   ar
    15    27    28   ar
    16    28    29    1
    17     3     4   ar
    18     4     5   ar
    19     5     6   ar
    20     6     7    1
    21     9    10    1
    22    10    11    2
    23    11    12    1
    24    11    13    1
    25    13    14    1
    26    14    15    1
    27    15    16    1
    28    15     9    1
    29     6     1   ar
    30    28    23   ar
    31    19    22    1
    32    12    17    1
    33    12    18    1
@<TRIPOS>MOLECULE
*****
 31 33 0 0 0
SMALL
GASTEIGER

@<TRIPOS>ATOM
      1 C         140.0265  139.8678  166.2432 C.ar    1  UNL1        0.0555
      2 C         140.6007  139.5681  164.8903 C.ar    1  UNL1        0.0168
      3 C         140.0287  138.4558  164.0624 C.ar    1  UNL1        0.0505
      4 C         138.8824  137.6431  164.5874 C.ar    1  UNL1        0.0170
      5 C         138.3082  137.9427  165.9404 C.ar    1  UNL1        0.0307
      6 C         138.8803  139.0550  166.7683 C.ar    1  UNL1        0.1402
      7 F         138.3061  139.3547  168.1213 F       1  UNL1       -0.2044
      8 C         139.6839  141.7644  166.1775 C.3     1  UNL1        0.0638
      9 C         140.5985  140.9801  167.0712 C.3     1  UNL1        0.2513
     10 N         141.3144  139.8096  167.6773 N.2     1  UNL1       -0.0663
     11 C         142.2847  140.0238  168.8010 C.2     1  UNL1        0.3195
     12 N         143.0006  138.8532  169.4071 N.pl3   1  UNL1       -0.2480
     13 C         142.5390  141.4086  169.3186 C.3     1  UNL1        0.2611
     14 O         141.8232  142.5790  168.7125 O.3     1  UNL1       -0.3108
     15 C         140.8529  142.3649  167.5888 C.3     1  UNL1        0.3281
     16 F         140.1370  143.5353  166.9826 F       1  UNL1       -0.1989
     17 H         142.8336  137.9444  169.0674 H       1  UNL1        0.2882
     18 H         143.6374  138.9938  170.1446 H       1  UNL1        0.2882
     19 N         140.6029  138.1561  162.7094 N.am    1  UNL1       -0.2791
     20 C         140.1788  138.9642  161.5190 C.2     1  UNL1        0.2695
     21 O         139.1805  140.0720  161.6815 O.2     1  UNL1       -0.2681
     22 H         141.2580  137.4291  162.6027 H       1  UNL1        0.1552
     23 C         140.7529  138.6646  160.1660 C.ar    1  UNL1        0.1621
     24 N         139.8403  138.3727  159.0119 N.ar    1  UNL1       -0.2363
     25 C         140.4146  138.0731  157.6589 C.ar    1  UNL1        0.1094
     26 C         141.9013  138.0654  157.4600 C.ar    1  UNL1        0.0898
     27 C         142.8138  138.3573  158.6141 C.ar    1  UNL1        0.0432
     28 C         142.2397  138.6569  159.9671 C.ar    1  UNL1        0.1628
     29 F         143.1523  138.9488  161.1212 F       1  UNL1       -0.2024
     30 C         142.4754  137.7658  156.1071 C.1     1  UNL1        0.1021
     31 N         143.0496  137.4661  154.7540 N.1     1  UNL1       -0.1908
@<TRIPOS>BOND
     1     9     8    1
     2     9     1    1
     3     1     2   ar
     4     2     3   ar
     5     3    19    1
     6    19    20   am
     7    20    21    2
     8    20    23    1
     9    23    24   ar
    10    24    25   ar
    11    25    26   ar
    12    26    30    1
    13    30    31    3
    14    26    27   ar
    15    27    28   ar
    16    28    29    1
    17     3     4   ar
    18     4     5   ar
    19     5     6   ar
    20     6     7    1
    21     9    10    1
    22    10    11    2
    23    11    12    1
    24    11    13    1
    25    13    14    1
    26    14    15    1
    27    15    16    1
    28    15     9    1
    29     6     1   ar
    30    28    23   ar
    31    19    22    1
    32    12    17    1
    33    12    18    1
