@<TRIPOS>MOLECULE
*****
 34 37 0 0 0
SMALL
GASTEIGER

@<TRIPOS>ATOM
      1 C         142.4361  139.0515  163.5435 C.ar    1  UNL1        0.0222
      2 C         141.2716  139.6759  164.2536 C.ar    1  UNL1        0.0220
      3 C         141.5490  139.6310  165.7270 C.ar    1  UNL1        0.0961
      4 C         140.7577  140.0998  166.9120 C.ar    1  UNL1        0.0685
      5 C         141.3024  139.9163  168.2976 C.ar    1  UNL1        0.0885
      6 C         142.6381  139.2641  168.4981 C.ar    1  UNL1        0.1263
      7 N         143.4294  138.7954  167.3131 N.ar    1  UNL1       -0.1633
      8 N         142.8848  138.9788  165.9276 N.ar    1  UNL1       -0.2270
      9 C         143.4331  138.6207  164.5781 C.ar    1  UNL1        0.1005
     10 C         143.0057  138.3926  157.6070 C.3     1  UNL1        0.0521
     11 C         142.8633  138.5573  159.0911 C.ar    1  UNL1        0.0594
     12 C         141.5192  138.3986  159.7378 C.ar    1  UNL1        0.0147
     13 C         141.3768  138.5633  161.2219 C.ar    1  UNL1        0.0028
     14 C         142.5785  138.8868  162.0594 C.ar    1  UNL1        0.0207
     15 C         143.9226  139.0455  161.4127 C.ar    1  UNL1        0.0984
     16 N         144.0650  138.8808  159.9286 N.ar    1  UNL1       -0.2481
     17 C         140.5111  140.3850  169.4826 C.2     1  UNL1        0.2456
     18 N         140.3551  139.4950  170.6799 N.am    1  UNL1       -0.3252
     19 O         139.8758  141.7438  169.4703 O.2     1  UNL1       -0.2703
     20 H         140.7721  138.6032  170.6880 H       1  UNL1        0.1453
     21 H         139.8358  139.8026  171.4576 H       1  UNL1        0.1453
     22 N         139.4219  140.7520  166.7115 N.pl3   1  UNL1       -0.3327
     23 H         138.6226  140.3826  167.1519 H       1  UNL1        0.1468
     24 C         139.3038  141.9670  165.8398 C.3     1  UNL1        0.0702
     25 C         140.0502  143.2558  166.0180 C.3     1  UNL1        0.0208
     26 C         139.6263  144.1919  164.9253 C.3     1  UNL1        0.0160
     27 C         138.6179  143.4815  164.0717 C.3     1  UNL1        0.0404
     28 C         138.6059  144.7641  163.2940 C.3     1  UNL1        0.0156
     29 N         137.6071  143.0393  163.0556 N.3     1  UNL1       -0.3231
     30 C         138.4186  142.1065  164.6369 C.3     1  UNL1        0.0282
     31 C         137.4493  141.9517  163.5026 C.3     1  UNL1        0.0029
     32 C         138.0167  140.6991  164.9650 C.3     1  UNL1        0.0029
     33 H         137.4383  143.7957  162.3924 H       1  UNL1        0.1188
     34 H         136.7347  142.7988  163.5262 H       1  UNL1        0.1188
@<TRIPOS>BOND
     1    10    11    1
     2    11    12   ar
     3    12    13   ar
     4    13    14   ar
     5    14     1    1
     6     1     2   ar
     7     2     3   ar
     8     3     4   ar
     9     4    22    1
    10    24    22    1
    11    24    25    1
    12    25    26    1
    13    26    27    1
    14    27    28    1
    15    27    29    1
    16    27    30    1
    17    30    31    1
    18    30    32    1
    19     4     5   ar
    20     5    17    1
    21    17    18   am
    22    17    19    2
    23     5     6   ar
    24     6     7   ar
    25     7     8   ar
    26     8     9   ar
    27    14    15   ar
    28    15    16   ar
    29    16    11   ar
    30     9     1   ar
    31     8     3   ar
    32    30    24    1
    33    22    23    1
    34    29    33    1
    35    29    34    1
    36    18    20    1
    37    18    21    1
@<TRIPOS>MOLECULE
*****
 34 37 0 0 0
SMALL
GASTEIGER

@<TRIPOS>ATOM
      1 C         140.5352  142.8322  164.0479 C.ar    1  UNL1        0.0222
      2 C         140.9466  141.4628  164.5013 C.ar    1  UNL1        0.0220
      3 C         140.9740  141.4599  166.0010 C.ar    1  UNL1        0.0961
      4 C         141.3072  140.3887  166.9967 C.ar    1  UNL1        0.0685
      5 C         141.2460  140.6851  168.4659 C.ar    1  UNL1        0.0885
      6 C         140.8516  142.0526  168.9393 C.ar    1  UNL1        0.1263
      7 N         140.5184  143.1238  167.9437 N.ar    1  UNL1       -0.1633
      8 N         140.5796  142.8275  166.4745 N.ar    1  UNL1       -0.2270
      9 C         140.3084  143.6756  165.2674 C.ar    1  UNL1        0.1005
     10 C         139.9072  144.6219  158.3555 C.3     1  UNL1        0.0521
     11 C         140.0642  144.1745  159.7786 C.ar    1  UNL1        0.0594
     12 C         141.3679  144.3825  160.4907 C.ar    1  UNL1        0.0147
     13 C         141.5248  143.9350  161.9138 C.ar    1  UNL1        0.0028
     14 C         140.3782  143.2796  162.6248 C.ar    1  UNL1        0.0207
     15 C         139.0745  143.0716  161.9127 C.ar    1  UNL1        0.0984
     16 N         138.9175  143.5190  160.4896 N.ar    1  UNL1       -0.2481
     17 C         141.5792  139.6138  169.4617 C.2     1  UNL1        0.2456
     18 N         140.6533  139.3432  170.6103 N.am    1  UNL1       -0.3252
     19 O         142.8384  138.8130  169.3087 O.2     1  UNL1       -0.2703
     20 H         139.8268  139.8688  170.7107 H       1  UNL1        0.1453
     21 H         140.8720  138.6401  171.2638 H       1  UNL1        0.1453
     22 N         141.7017  139.0211  166.5233 N.pl3   1  UNL1       -0.3327
     23 H         141.4876  138.2304  167.0694 H       1  UNL1        0.1468
     24 C         142.4222  138.8582  165.2178 C.3     1  UNL1        0.0702
     25 C         143.7602  139.4406  164.8706 C.3     1  UNL1        0.0208
     26 C         144.0962  139.0268  163.4686 C.3     1  UNL1        0.0160
     27 C         142.9659  138.1886  162.9492 C.3     1  UNL1        0.0404
     28 C         143.8006  138.1143  161.7052 C.3     1  UNL1        0.0156
     29 N         142.0100  137.3349  162.1698 N.3     1  UNL1       -0.3231
     30 C         141.9313  138.0844  164.0303 C.3     1  UNL1        0.0282
     31 C         141.1917  137.2524  163.0248 C.3     1  UNL1        0.0029
     32 C         140.7421  137.8063  164.9012 C.3     1  UNL1        0.0029
     33 H         142.3959  137.1510  161.2437 H       1  UNL1        0.1188
     34 H         141.1184  137.8213  162.0762 H       1  UNL1        0.1188
@<TRIPOS>BOND
     1    10    11    1
     2    11    12   ar
     3    12    13   ar
     4    13    14   ar
     5    14     1    1
     6     1     2   ar
     7     2     3   ar
     8     3     4   ar
     9     4    22    1
    10    24    22    1
    11    24    25    1
    12    25    26    1
    13    26    27    1
    14    27    28    1
    15    27    29    1
    16    27    30    1
    17    30    31    1
    18    30    32    1
    19     4     5   ar
    20     5    17    1
    21    17    18   am
    22    17    19    2
    23     5     6   ar
    24     6     7   ar
    25     7     8   ar
    26     8     9   ar
    27    14    15   ar
    28    15    16   ar
    29    16    11   ar
    30     9     1   ar
    31     8     3   ar
    32    30    24    1
    33    22    23    1
    34    29    33    1
    35    29    34    1
    36    18    20    1
    37    18    21    1
@<TRIPOS>MOLECULE
*****
 34 37 0 0 0
SMALL
GASTEIGER

@<TRIPOS>ATOM
      1 C         142.9034  141.7821  164.5159 C.ar    1  UNL1        0.0222
      2 C         141.7361  140.9182  164.8917 C.ar    1  UNL1        0.0220
      3 C         141.5568  141.0027  166.3785 C.ar    1  UNL1        0.0961
      4 C         140.5679  140.3638  167.3080 C.ar    1  UNL1        0.0685
      5 C         140.6355  140.6409  168.7807 C.ar    1  UNL1        0.0885
      6 C         141.6919  141.5569  169.3238 C.ar    1  UNL1        0.1263
      7 N         142.6807  142.1957  168.3943 N.ar    1  UNL1       -0.1633
      8 N         142.6132  141.9187  166.9216 N.ar    1  UNL1       -0.2270
      9 C         143.4455  142.4004  165.7705 C.ar    1  UNL1        0.1005
     10 C         145.0311  142.6175  158.9683 C.3     1  UNL1        0.0521
     11 C         144.4992  142.4086  160.3552 C.ar    1  UNL1        0.0594
     12 C         143.9734  141.0641  160.7622 C.ar    1  UNL1        0.0147
     13 C         143.4415  140.8553  162.1491 C.ar    1  UNL1        0.0028
     14 C         143.4354  141.9910  163.1290 C.ar    1  UNL1        0.0207
     15 C         143.9611  143.3355  162.7220 C.ar    1  UNL1        0.0984
     16 N         144.4931  143.5443  161.3351 N.ar    1  UNL1       -0.2481
     17 C         139.6466  140.0020  169.7103 C.2     1  UNL1        0.2456
     18 N         140.0503  139.6577  171.1133 N.am    1  UNL1       -0.3252
     19 O         138.2542  139.7074  169.2367 O.2     1  UNL1       -0.2703
     20 H         140.9642  139.8511  171.4241 H       1  UNL1        0.1453
     21 H         139.4013  139.2384  171.7234 H       1  UNL1        0.1453
     22 N         139.5115  139.4478  166.7650 N.pl3   1  UNL1       -0.3327
     23 H         139.2103  138.6748  167.2950 H       1  UNL1        0.1468
     24 C         138.9140  139.7096  165.4142 C.3     1  UNL1        0.0702
     25 C         138.2291  140.9724  164.9828 C.3     1  UNL1        0.0208
     26 C         137.7883  140.7979  163.5598 C.3     1  UNL1        0.0160
     27 C         138.2007  139.4271  163.1116 C.3     1  UNL1        0.0404
     28 C         137.5634  139.8307  161.8152 C.3     1  UNL1        0.0156
     29 N         138.4799  138.1407  162.3925 N.3     1  UNL1       -0.3231
     30 C         138.8964  138.7545  164.2577 C.3     1  UNL1        0.0282
     31 C         139.0302  137.6086  163.2989 C.3     1  UNL1        0.0029
     32 C         139.6201  137.8424  165.2034 C.3     1  UNL1        0.0029
     33 H         138.1135  138.1960  161.4421 H       1  UNL1        0.1188
     34 H         138.0292  137.3704  162.8863 H       1  UNL1        0.1188
@<TRIPOS>BOND
     1    10    11    1
     2    11    12   ar
     3    12    13   ar
     4    13    14   ar
     5    14     1    1
     6     1     2   ar
     7     2     3   ar
     8     3     4   ar
     9     4    22    1
    10    24    22    1
    11    24    25    1
    12    25    26    1
    13    26    27    1
    14    27    28    1
    15    27    29    1
    16    27    30    1
    17    30    31    1
    18    30    32    1
    19     4     5   ar
    20     5    17    1
    21    17    18   am
    22    17    19    2
    23     5     6   ar
    24     6     7   ar
    25     7     8   ar
    26     8     9   ar
    27    14    15   ar
    28    15    16   ar
    29    16    11   ar
    30     9     1   ar
    31     8     3   ar
    32    30    24    1
    33    22    23    1
    34    29    33    1
    35    29    34    1
    36    18    20    1
    37    18    21    1
@<TRIPOS>MOLECULE
*****
 34 37 0 0 0
SMALL
GASTEIGER

@<TRIPOS>ATOM
      1 C         138.8435  140.0468  165.4423 C.ar    1  UNL1        0.0222
      2 C         140.1904  140.4893  165.9324 C.ar    1  UNL1        0.0220
      3 C         140.2007  140.3729  167.4278 C.ar    1  UNL1        0.0961
      4 C         141.2575  140.6689  168.4503 C.ar    1  UNL1        0.0685
      5 C         140.9738  140.4505  169.9070 C.ar    1  UNL1        0.0885
      6 C         139.6333  139.9362  170.3411 C.ar    1  UNL1        0.1263
      7 N         138.5765  139.6402  169.3187 N.ar    1  UNL1       -0.1633
      8 N         138.8602  139.8586  167.8620 N.ar    1  UNL1       -0.2270
      9 C         138.0214  139.6570  166.6349 C.ar    1  UNL1        0.1005
     10 C         137.0579  139.8674  159.7169 C.3     1  UNL1        0.0521
     11 C         137.5044  139.9122  161.1483 C.ar    1  UNL1        0.0594
     12 C         138.0849  138.6878  161.7915 C.ar    1  UNL1        0.0147
     13 C         138.5313  138.7327  163.2229 C.ar    1  UNL1        0.0028
     14 C         138.3971  140.0019  164.0110 C.ar    1  UNL1        0.0207
     15 C         137.8166  141.2263  163.3677 C.ar    1  UNL1        0.0984
     16 N         137.3702  141.1814  161.9364 N.ar    1  UNL1       -0.2481
     17 C         142.0307  140.7466  170.9295 C.2     1  UNL1        0.2456
     18 N         143.2028  139.8236  171.0855 N.am    1  UNL1       -0.3252
     19 O         141.9154  141.9655  171.7961 O.2     1  UNL1       -0.2703
     20 H         143.2784  139.0236  170.5168 H       1  UNL1        0.1453
     21 H         143.8964  140.0179  171.7566 H       1  UNL1        0.1453
     22 N         142.5981  141.1833  168.0162 N.pl3   1  UNL1       -0.3327
     23 H         143.0775  141.8390  168.5725 H       1  UNL1        0.1468
     24 C         143.2081  140.6987  166.7344 C.3     1  UNL1        0.0702
     25 C         143.4177  139.2656  166.3442 C.3     1  UNL1        0.0208
     26 C         144.0548  139.2433  164.9864 C.3     1  UNL1        0.0160
     27 C         144.2389  140.6626  164.5374 C.3     1  UNL1        0.0404
     28 C         144.8263  140.0323  163.3096 C.3     1  UNL1        0.0156
     29 N         144.5457  141.9501  163.8317 N.3     1  UNL1       -0.3231
     30 C         143.7156  141.5621  165.6177 C.3     1  UNL1        0.0282
     31 C         144.1318  142.6617  164.6862 C.3     1  UNL1        0.0029
     32 C         143.2793  142.6914  166.5033 C.3     1  UNL1        0.0029
     33 H         144.9733  141.7489  162.9278 H       1  UNL1        0.1188
     34 H         145.1902  142.5026  164.3972 H       1  UNL1        0.1188
@<TRIPOS>BOND
     1    10    11    1
     2    11    12   ar
     3    12    13   ar
     4    13    14   ar
     5    14     1    1
     6     1     2   ar
     7     2     3   ar
     8     3     4   ar
     9     4    22    1
    10    24    22    1
    11    24    25    1
    12    25    26    1
    13    26    27    1
    14    27    28    1
    15    27    29    1
    16    27    30    1
    17    30    31    1
    18    30    32    1
    19     4     5   ar
    20     5    17    1
    21    17    18   am
    22    17    19    2
    23     5     6   ar
    24     6     7   ar
    25     7     8   ar
    26     8     9   ar
    27    14    15   ar
    28    15    16   ar
    29    16    11   ar
    30     9     1   ar
    31     8     3   ar
    32    30    24    1
    33    22    23    1
    34    29    33    1
    35    29    34    1
    36    18    20    1
    37    18    21    1
@<TRIPOS>MOLECULE
*****
 34 37 0 0 0
SMALL
GASTEIGER

@<TRIPOS>ATOM
      1 C         142.1574  139.4291  163.0761 C.ar    1  UNL1        0.0222
      2 C         141.1821  140.4138  163.6497 C.ar    1  UNL1        0.0220
      3 C         141.3564  140.4244  165.1395 C.ar    1  UNL1        0.0961
      4 C         140.6688  141.1984  166.2249 C.ar    1  UNL1        0.0685
      5 C         141.0643  140.9943  167.6575 C.ar    1  UNL1        0.0885
      6 C         142.1471  140.0162  168.0045 C.ar    1  UNL1        0.1263
      7 N         142.8347  139.2421  166.9191 N.ar    1  UNL1       -0.1633
      8 N         142.4393  139.4463  165.4866 N.ar    1  UNL1       -0.2270
      9 C         142.9344  138.8311  164.2113 C.ar    1  UNL1        0.1005
     10 C         142.8321  138.1129  157.2611 C.3     1  UNL1        0.0521
     11 C         142.6634  138.4420  158.7149 C.ar    1  UNL1        0.0594
     12 C         141.2946  138.4494  159.3282 C.ar    1  UNL1        0.0147
     13 C         141.1260  138.7785  160.7820 C.ar    1  UNL1        0.0028
     14 C         142.3261  139.1000  161.6223 C.ar    1  UNL1        0.0207
     15 C         143.6950  139.0926  161.0090 C.ar    1  UNL1        0.0984
     16 N         143.8636  138.7635  159.5552 N.ar    1  UNL1       -0.2481
     17 C         140.3767  141.7683  168.7429 C.2     1  UNL1        0.2456
     18 N         139.6675  141.0426  169.8477 N.am    1  UNL1       -0.3252
     19 O         140.3982  143.2680  168.7236 O.2     1  UNL1       -0.2703
     20 H         139.6534  140.0583  169.8604 H       1  UNL1        0.1453
     21 H         139.2163  141.5506  170.5601 H       1  UNL1        0.1453
     22 N         139.5858  142.1766  165.8780 N.pl3   1  UNL1       -0.3327
     23 H         138.7027  142.1060  166.3072 H       1  UNL1        0.1468
     24 C         139.8485  143.2624  164.8769 C.3     1  UNL1        0.0702
     25 C         141.1489  143.9833  164.6789 C.3     1  UNL1        0.0208
     26 C         140.9611  144.9843  163.5777 C.3     1  UNL1        0.0160
     27 C         139.5445  144.8821  163.0951 C.3     1  UNL1        0.0404
     28 C         139.9538  145.9726  162.1500 C.3     1  UNL1        0.0156
     29 N         138.2136  145.0079  162.4150 N.3     1  UNL1       -0.3231
     30 C         138.8569  143.8179  163.8981 C.3     1  UNL1        0.0282
     31 C         137.6696  144.1661  163.0500 C.3     1  UNL1        0.0029
     32 C         137.9212  142.8265  164.5237 C.3     1  UNL1        0.0029
     33 H         138.2654  145.7309  161.6974 H       1  UNL1        0.1188
     34 H         137.5033  145.2609  163.1019 H       1  UNL1        0.1188
@<TRIPOS>BOND
     1    10    11    1
     2    11    12   ar
     3    12    13   ar
     4    13    14   ar
     5    14     1    1
     6     1     2   ar
     7     2     3   ar
     8     3     4   ar
     9     4    22    1
    10    24    22    1
    11    24    25    1
    12    25    26    1
    13    26    27    1
    14    27    28    1
    15    27    29    1
    16    27    30    1
    17    30    31    1
    18    30    32    1
    19     4     5   ar
    20     5    17    1
    21    17    18   am
    22    17    19    2
    23     5     6   ar
    24     6     7   ar
    25     7     8   ar
    26     8     9   ar
    27    14    15   ar
    28    15    16   ar
    29    16    11   ar
    30     9     1   ar
    31     8     3   ar
    32    30    24    1
    33    22    23    1
    34    29    33    1
    35    29    34    1
    36    18    20    1
    37    18    21    1
@<TRIPOS>MOLECULE
*****
 34 37 0 0 0
SMALL
GASTEIGER

@<TRIPOS>ATOM
      1 C         140.0555  138.7560  162.9813 C.ar    1  UNL1        0.0222
      2 C         140.7304  139.6599  163.9700 C.ar    1  UNL1        0.0220
      3 C         139.9946  139.5534  165.2727 C.ar    1  UNL1        0.0961
      4 C         140.2073  140.2142  166.6024 C.ar    1  UNL1        0.0685
      5 C         139.2902  139.9053  167.7486 C.ar    1  UNL1        0.0885
      6 C         138.1606  138.9357  167.5651 C.ar    1  UNL1        0.1263
      7 N         137.9479  138.2750  166.2354 N.ar    1  UNL1       -0.1633
      8 N         138.8649  138.5838  165.0892 N.ar    1  UNL1       -0.2270
      9 C         138.9026  138.0910  163.6730 C.ar    1  UNL1        0.1005
     10 C         141.6822  137.9432  157.2634 C.3     1  UNL1        0.0521
     11 C         141.2756  138.1464  158.6929 C.ar    1  UNL1        0.0594
     12 C         142.3035  138.0727  159.7828 C.ar    1  UNL1        0.0147
     13 C         141.8967  138.2759  161.2123 C.ar    1  UNL1        0.0028
     14 C         140.4622  138.5528  161.5518 C.ar    1  UNL1        0.0207
     15 C         139.4343  138.6265  160.4619 C.ar    1  UNL1        0.0984
     16 N         139.8410  138.4233  159.0324 N.ar    1  UNL1       -0.2481
     17 C         139.5029  140.5661  169.0784 C.2     1  UNL1        0.2456
     18 N         139.1716  139.8305  170.3430 N.am    1  UNL1       -0.3252
     19 O         140.0468  141.9625  169.1435 O.2     1  UNL1       -0.2703
     20 H         138.8146  138.9140  170.3002 H       1  UNL1        0.1453
     21 H         139.3112  140.2642  171.2157 H       1  UNL1        0.1453
     22 N         141.3369  141.1839  166.7860 N.pl3   1  UNL1       -0.3327
     23 H         141.9849  141.0524  167.5154 H       1  UNL1        0.1468
     24 C         141.4792  142.3539  165.8583 C.3     1  UNL1        0.0702
     25 C         140.3618  143.2122  165.3438 C.3     1  UNL1        0.0208
     26 C         140.9558  144.2598  164.4497 C.3     1  UNL1        0.0160
     27 C         142.4404  144.0491  164.4116 C.3     1  UNL1        0.0404
     28 C         142.4267  145.2348  163.4929 C.3     1  UNL1        0.0156
     29 N         143.9222  144.0863  164.1815 N.3     1  UNL1       -0.3231
     30 C         142.7639  142.8712  165.2822 C.3     1  UNL1        0.0282
     31 C         144.1781  143.1546  164.8700 C.3     1  UNL1        0.0029
     32 C         143.3830  141.7526  166.0666 C.3     1  UNL1        0.0029
     33 H         144.1494  144.8566  163.5526 H       1  UNL1        0.1188
     34 H         144.2235  143.2060  163.7636 H       1  UNL1        0.1188
@<TRIPOS>BOND
     1    10    11    1
     2    11    12   ar
     3    12    13   ar
     4    13    14   ar
     5    14     1    1
     6     1     2   ar
     7     2     3   ar
     8     3     4   ar
     9     4    22    1
    10    24    22    1
    11    24    25    1
    12    25    26    1
    13    26    27    1
    14    27    28    1
    15    27    29    1
    16    27    30    1
    17    30    31    1
    18    30    32    1
    19     4     5   ar
    20     5    17    1
    21    17    18   am
    22    17    19    2
    23     5     6   ar
    24     6     7   ar
    25     7     8   ar
    26     8     9   ar
    27    14    15   ar
    28    15    16   ar
    29    16    11   ar
    30     9     1   ar
    31     8     3   ar
    32    30    24    1
    33    22    23    1
    34    29    33    1
    35    29    34    1
    36    18    20    1
    37    18    21    1
@<TRIPOS>MOLECULE
*****
 34 37 0 0 0
SMALL
GASTEIGER

@<TRIPOS>ATOM
      1 C         139.5024  140.3812  165.5793 C.ar    1  UNL1        0.0222
      2 C         139.6218  141.2315  164.3494 C.ar    1  UNL1        0.0220
      3 C         139.2502  140.3887  163.1655 C.ar    1  UNL1        0.0961
      4 C         139.1845  140.6927  161.6981 C.ar    1  UNL1        0.0685
      5 C         138.7699  139.6255  160.7289 C.ar    1  UNL1        0.0885
      6 C         138.4209  138.2545  161.2271 C.ar    1  UNL1        0.1263
      7 N         138.4865  137.9505  162.6945 N.ar    1  UNL1       -0.1633
      8 N         138.9011  139.0176  163.6637 N.ar    1  UNL1       -0.2270
      9 C         139.0570  139.0129  165.1555 C.ar    1  UNL1        0.1005
     10 C         140.6116  142.1436  171.2064 C.3     1  UNL1        0.0521
     11 C         140.3343  141.7030  169.7996 C.ar    1  UNL1        0.0594
     12 C         140.6948  142.5956  168.6493 C.ar    1  UNL1        0.0147
     13 C         140.4175  142.1549  167.2425 C.ar    1  UNL1        0.0028
     14 C         139.7797  140.8217  166.9861 C.ar    1  UNL1        0.0207
     15 C         139.4191  139.9291  168.1364 C.ar    1  UNL1        0.0984
     16 N         139.6965  140.3698  169.5432 N.ar    1  UNL1       -0.2481
     17 C         138.7042  139.9295  159.2614 C.2     1  UNL1        0.2456
     18 N         139.2317  138.9391  158.2660 N.am    1  UNL1       -0.3252
     19 O         138.1111  141.2240  158.7895 O.2     1  UNL1       -0.2703
     20 H         139.6209  138.0896  158.5758 H       1  UNL1        0.1453
     21 H         139.1886  139.1387  157.3029 H       1  UNL1        0.1453
     22 N         139.5335  142.0639  161.1998 N.pl3   1  UNL1       -0.3327
     23 H         138.9648  142.5024  160.5264 H       1  UNL1        0.1468
     24 C         140.7491  142.7667  161.7275 C.3     1  UNL1        0.0702
     25 C         142.1425  142.2126  161.7620 C.3     1  UNL1        0.0208
     26 C         143.0392  143.2504  162.3692 C.3     1  UNL1        0.0160
     27 C         142.2000  144.4460  162.7100 C.3     1  UNL1        0.0404
     28 C         143.4966  145.0200  163.1992 C.3     1  UNL1        0.0156
     29 N         141.6318  145.7616  163.1530 N.3     1  UNL1       -0.3231
     30 C         140.7846  144.1471  162.3134 C.3     1  UNL1        0.0282
     31 C         140.5122  145.5252  162.8393 C.3     1  UNL1        0.0029
     32 C         139.3123  144.1362  162.0267 C.3     1  UNL1        0.0029
     33 H         142.3771  146.3412  163.5389 H       1  UNL1        0.1188
     34 H         140.9210  145.6019  163.8669 H       1  UNL1        0.1188
@<TRIPOS>BOND
     1    10    11    1
     2    11    12   ar
     3    12    13   ar
     4    13    14   ar
     5    14     1    1
     6     1     2   ar
     7     2     3   ar
     8     3     4   ar
     9     4    22    1
    10    24    22    1
    11    24    25    1
    12    25    26    1
    13    26    27    1
    14    27    28    1
    15    27    29    1
    16    27    30    1
    17    30    31    1
    18    30    32    1
    19     4     5   ar
    20     5    17    1
    21    17    18   am
    22    17    19    2
    23     5     6   ar
    24     6     7   ar
    25     7     8   ar
    26     8     9   ar
    27    14    15   ar
    28    15    16   ar
    29    16    11   ar
    30     9     1   ar
    31     8     3   ar
    32    30    24    1
    33    22    23    1
    34    29    33    1
    35    29    34    1
    36    18    20    1
    37    18    21    1
@<TRIPOS>MOLECULE
*****
 34 37 0 0 0
SMALL
GASTEIGER

@<TRIPOS>ATOM
      1 C         142.2175  139.6423  165.1656 C.ar    1  UNL1        0.0222
      2 C         142.3278  140.7720  164.1850 C.ar    1  UNL1        0.0220
      3 C         142.8760  140.2204  162.9023 C.ar    1  UNL1        0.0961
      4 C         143.1966  140.8673  161.5875 C.ar    1  UNL1        0.0685
      5 C         143.7457  140.0435  160.4606 C.ar    1  UNL1        0.0885
      6 C         143.9741  138.5730  160.6485 C.ar    1  UNL1        0.1263
      7 N         143.6534  137.9261  161.9633 N.ar    1  UNL1       -0.1633
      8 N         143.1044  138.7499  163.0902 N.ar    1  UNL1       -0.2270
      9 C         142.6974  138.3926  164.4890 C.ar    1  UNL1        0.1005
     10 C         140.2089  140.0508  170.8047 C.3     1  UNL1        0.0521
     11 C         140.7110  139.9487  169.3950 C.ar    1  UNL1        0.0594
     12 C         139.7872  140.2313  168.2475 C.ar    1  UNL1        0.0147
     13 C         140.2894  140.1291  166.8377 C.ar    1  UNL1        0.0028
     14 C         141.7154  139.7445  166.5754 C.ar    1  UNL1        0.0207
     15 C         142.6391  139.4619  167.7229 C.ar    1  UNL1        0.0984
     16 N         142.1369  139.5640  169.1327 N.ar    1  UNL1       -0.2481
     17 C         144.0664  140.6903  159.1457 C.2     1  UNL1        0.2456
     18 N         143.8915  139.9219  157.8694 N.am    1  UNL1       -0.3252
     19 O         144.5620  142.1056  159.1071 O.2     1  UNL1       -0.2703
     20 H         143.5662  138.9930  157.8947 H       1  UNL1        0.1453
     21 H         144.1019  140.3465  157.0064 H       1  UNL1        0.1453
     22 N         142.9683  142.3379  161.3996 N.pl3   1  UNL1       -0.3327
     23 H         143.6949  142.9096  161.0616 H       1  UNL1        0.1468
     24 C         141.6327  142.9372  161.7266 C.3     1  UNL1        0.0702
     25 C         140.2991  142.4163  161.2791 C.3     1  UNL1        0.0208
     26 C         139.2384  143.3198  161.8345 C.3     1  UNL1        0.0160
     27 C         139.9164  144.3991  162.6253 C.3     1  UNL1        0.0404
     28 C         138.5172  144.8824  162.8679 C.3     1  UNL1        0.0156
     29 N         140.3019  145.5794  163.4668 N.3     1  UNL1       -0.3231
     30 C         141.3961  144.1627  162.5587 C.3     1  UNL1        0.0282
     31 C         141.4723  145.3925  163.4142 C.3     1  UNL1        0.0029
     32 C         142.8917  144.1833  162.6708 C.3     1  UNL1        0.0029
     33 H         139.4613  146.0790  163.7573 H       1  UNL1        0.1188
     34 H         140.8980  146.2040  162.9238 H       1  UNL1        0.1188
@<TRIPOS>BOND
     1    10    11    1
     2    11    12   ar
     3    12    13   ar
     4    13    14   ar
     5    14     1    1
     6     1     2   ar
     7     2     3   ar
     8     3     4   ar
     9     4    22    1
    10    24    22    1
    11    24    25    1
    12    25    26    1
    13    26    27    1
    14    27    28    1
    15    27    29    1
    16    27    30    1
    17    30    31    1
    18    30    32    1
    19     4     5   ar
    20     5    17    1
    21    17    18   am
    22    17    19    2
    23     5     6   ar
    24     6     7   ar
    25     7     8   ar
    26     8     9   ar
    27    14    15   ar
    28    15    16   ar
    29    16    11   ar
    30     9     1   ar
    31     8     3   ar
    32    30    24    1
    33    22    23    1
    34    29    33    1
    35    29    34    1
    36    18    20    1
    37    18    21    1
@<TRIPOS>MOLECULE
*****
 34 37 0 0 0
SMALL
GASTEIGER

@<TRIPOS>ATOM
      1 C         143.2370  139.8072  163.8410 C.ar    1  UNL1        0.0222
      2 C         142.1871  140.4984  164.6595 C.ar    1  UNL1        0.0220
      3 C         142.2935  139.9966  166.0691 C.ar    1  UNL1        0.0961
      4 C         141.5186  140.3221  167.3115 C.ar    1  UNL1        0.0685
      5 C         141.8594  139.6463  168.6066 C.ar    1  UNL1        0.0885
      6 C         142.9750  138.6451  168.6592 C.ar    1  UNL1        0.1263
      7 N         143.7499  138.3195  167.4168 N.ar    1  UNL1       -0.1633
      8 N         143.4091  138.9953  166.1218 N.ar    1  UNL1       -0.2270
      9 C         143.9923  138.8782  164.7447 C.ar    1  UNL1        0.1005
     10 C         144.2397  140.6162  157.9809 C.3     1  UNL1        0.0521
     11 C         143.9890  140.4140  159.4459 C.ar    1  UNL1        0.0594
     12 C         143.6761  141.5901  160.3227 C.ar    1  UNL1        0.0147
     13 C         143.4255  141.3878  161.7877 C.ar    1  UNL1        0.0028
     14 C         143.4877  140.0094  162.3760 C.ar    1  UNL1        0.0207
     15 C         143.8006  138.8332  161.4993 C.ar    1  UNL1        0.0984
     16 N         144.0513  139.0356  160.0342 N.ar    1  UNL1       -0.2481
     17 C         141.0845  139.9718  169.8490 C.2     1  UNL1        0.2456
     18 N         141.8078  140.3705  171.1012 N.am    1  UNL1       -0.3252
     19 O         139.5863  139.8986  169.8393 O.2     1  UNL1       -0.2703
     20 H         142.7911  140.4185  171.1076 H       1  UNL1        0.1453
     21 H         141.2992  140.5841  171.9166 H       1  UNL1        0.1453
     22 N         140.4029  141.3234  167.2589 N.pl3   1  UNL1       -0.3327
     23 H         140.2827  141.9656  167.9953 H       1  UNL1        0.1468
     24 C         139.4705  141.3462  166.0842 C.3     1  UNL1        0.0702
     25 C         138.7013  140.1763  165.5462 C.3     1  UNL1        0.0208
     26 C         137.8989  140.6499  164.3707 C.3     1  UNL1        0.0160
     27 C         138.1722  142.1127  164.1822 C.3     1  UNL1        0.0404
     28 C         137.2163  141.9825  163.0336 C.3     1  UNL1        0.0156
     29 N         138.2456  143.5482  163.7535 N.3     1  UNL1       -0.3231
     30 C         139.1435  142.5431  165.2411 C.3     1  UNL1        0.0282
     31 C         139.0139  143.8887  164.5911 C.3     1  UNL1        0.0029
     32 C         140.0876  143.2547  166.1642 C.3     1  UNL1        0.0029
     33 H         137.6411  143.6929  162.9448 H       1  UNL1        0.1188
     34 H         139.2073  143.7801  163.5049 H       1  UNL1        0.1188
@<TRIPOS>BOND
     1    10    11    1
     2    11    12   ar
     3    12    13   ar
     4    13    14   ar
     5    14     1    1
     6     1     2   ar
     7     2     3   ar
     8     3     4   ar
     9     4    22    1
    10    24    22    1
    11    24    25    1
    12    25    26    1
    13    26    27    1
    14    27    28    1
    15    27    29    1
    16    27    30    1
    17    30    31    1
    18    30    32    1
    19     4     5   ar
    20     5    17    1
    21    17    18   am
    22    17    19    2
    23     5     6   ar
    24     6     7   ar
    25     7     8   ar
    26     8     9   ar
    27    14    15   ar
    28    15    16   ar
    29    16    11   ar
    30     9     1   ar
    31     8     3   ar
    32    30    24    1
    33    22    23    1
    34    29    33    1
    35    29    34    1
    36    18    20    1
    37    18    21    1
