@<TRIPOS>MOLECULE
*****
 32 36 0 0 0
SMALL
GASTEIGER

@<TRIPOS>ATOM
      1 N         142.9423  139.1571  163.4359 N.3     1  UNL1       -0.2726
      2 C         144.1324  139.5112  162.5944 C.3     1  UNL1        0.0721
      3 C         144.7528  140.7509  163.1674 C.3     1  UNL1        0.0190
      4 C         143.9461  141.1629  164.3630 C.3     1  UNL1        0.0201
      5 C         144.7712  142.3692  164.7007 C.3     1  UNL1        0.0061
      6 C         143.5810  142.0151  165.5422 C.3     1  UNL1        0.0237
      7 C         142.8271  140.1779  164.5289 C.3     1  UNL1        0.0724
      8 C         142.6831  142.3026  166.7089 C.ar    1  UNL1       -0.0225
      9 C         141.2146  142.5163  166.4903 C.ar    1  UNL1       -0.0043
     10 C         140.3167  142.8038  167.6569 C.ar    1  UNL1        0.0035
     11 C         140.8873  142.8775  169.0422 C.ar    1  UNL1        0.0714
     12 C         142.3559  142.6638  169.2608 C.ar    1  UNL1        0.0035
     13 C         143.2538  142.3763  168.0941 C.ar    1  UNL1       -0.0043
     14 C         139.9894  143.1650  170.2088 C.3     1  UNL1        0.4186
     15 F         139.0915  143.4525  171.3756 F       1  UNL1       -0.1659
     16 F         140.4150  144.6031  170.1820 F       1  UNL1       -0.1659
     17 F         139.5639  141.7269  170.2357 F       1  UNL1       -0.1659
     18 C         142.0278  137.9875  163.2219 C.3     1  UNL1        0.0730
     19 C         140.8210  137.8095  164.0948 C.3     1  UNL1        0.0294
     20 C         139.5111  137.4001  163.4894 C.3     1  UNL1        0.0666
     21 S         138.6470  138.4210  162.8104 S.3     1  UNL1       -0.0756
     22 C         140.3520  140.7875  161.3467 C.3     1  UNL1        0.1340
     23 N         139.4908  140.9454  162.5646 N.ar    1  UNL1       -0.2884
     24 C         138.7071  139.8576  163.2374 C.ar    1  UNL1        0.1932
     25 N         137.9940  140.4588  164.4122 N.ar    1  UNL1       -0.1221
     26 N         138.3370  141.9181  164.4655 N.ar    1  UNL1       -0.1282
     27 C         139.2620  142.2189  163.3236 C.ar    1  UNL1        0.1673
     28 C         139.8544  143.5580  162.9980 C.ar    1  UNL1        0.0429
     29 C         141.2085  144.0485  163.4172 C.ar    1  UNL1        0.0105
     30 C         141.3876  145.4353  162.8743 C.ar    1  UNL1        0.0356
     31 S         140.1441  145.8018  162.1195 S.2     1  UNL1       -0.0858
     32 C         139.1965  144.6415  162.1960 C.ar    1  UNL1        0.0385
@<TRIPOS>BOND
     1    22    23    1
     2    23    24   ar
     3    24    21    1
     4    21    20    1
     5    20    19    1
     6    19    18    1
     7    18     1    1
     8     1     2    1
     9     2     3    1
    10     4     3    1
    11     4     5    1
    12     5     6    1
    13     6     8    1
    14     8     9   ar
    15     9    10   ar
    16    10    11   ar
    17    11    14    1
    18    14    15    1
    19    14    16    1
    20    14    17    1
    21    11    12   ar
    22    12    13   ar
    23     4     7    1
    24    24    25   ar
    25    25    26   ar
    26    26    27   ar
    27    27    28    1
    28    28    29   ar
    29    29    30   ar
    30    30    31   ar
    31    31    32   ar
    32    27    23   ar
    33    32    28   ar
    34     7     1    1
    35     6     4    1
    36    13     8   ar
@<TRIPOS>MOLECULE
*****
 32 36 0 0 0
SMALL
GASTEIGER

@<TRIPOS>ATOM
      1 N         141.0693  138.3570  163.1459 N.3     1  UNL1       -0.2726
      2 C         139.8063  137.6071  162.8420 C.3     1  UNL1        0.0721
      3 C         138.8763  137.7743  164.0070 C.3     1  UNL1        0.0190
      4 C         139.5645  138.6275  165.0309 C.3     1  UNL1        0.0201
      5 C         138.4416  138.6157  166.0252 C.3     1  UNL1        0.0061
      6 C         139.7046  139.3656  166.3291 C.3     1  UNL1        0.0237
      7 C         140.9199  138.9876  164.4987 C.3     1  UNL1        0.0724
      8 C         140.5147  140.2248  167.2541 C.ar    1  UNL1       -0.0225
      9 C         139.9611  141.5307  167.7422 C.ar    1  UNL1       -0.0043
     10 C         140.7712  142.3898  168.6672 C.ar    1  UNL1        0.0035
     11 C         142.1349  141.9430  169.1041 C.ar    1  UNL1        0.0714
     12 C         142.6884  140.6371  168.6160 C.ar    1  UNL1        0.0035
     13 C         141.8783  139.7780  167.6910 C.ar    1  UNL1       -0.0043
     14 C         142.9449  142.8022  170.0291 C.3     1  UNL1        0.4186
     15 F         143.7551  143.6613  170.9541 F       1  UNL1       -0.1659
     16 F         141.8229  143.7958  170.0888 F       1  UNL1       -0.1659
     17 F         144.0670  141.8085  169.9693 F       1  UNL1       -0.1659
     18 C         142.2708  138.4585  162.2537 C.3     1  UNL1        0.0730
     19 C         143.6140  138.7814  162.8382 C.3     1  UNL1        0.0294
     20 C         144.5436  139.7096  162.1142 C.3     1  UNL1        0.0666
     21 S         144.6297  141.1513  162.5192 S.3     1  UNL1       -0.0756
     22 C         141.5609  141.9743  161.7741 C.3     1  UNL1        0.1340
     23 N         142.2063  142.1048  163.1218 N.ar    1  UNL1       -0.2884
     24 C         143.6168  141.7265  163.4643 C.ar    1  UNL1        0.1932
     25 N         143.8367  142.0244  164.9179 N.ar    1  UNL1       -0.1221
     26 N         142.5621  142.5868  165.4738 N.ar    1  UNL1       -0.1282
     27 C         141.5544  142.6365  164.3638 C.ar    1  UNL1        0.1673
     28 C         140.1427  143.1310  164.4761 C.ar    1  UNL1        0.0429
     29 C         138.9029  142.2997  164.3281 C.ar    1  UNL1        0.0105
     30 C         137.7169  143.1986  164.5165 C.ar    1  UNL1        0.0356
     31 S         138.2238  144.5854  164.7810 S.2     1  UNL1       -0.0858
     32 C         139.7230  144.5436  164.7560 C.ar    1  UNL1        0.0385
@<TRIPOS>BOND
     1    22    23    1
     2    23    24   ar
     3    24    21    1
     4    21    20    1
     5    20    19    1
     6    19    18    1
     7    18     1    1
     8     1     2    1
     9     2     3    1
    10     4     3    1
    11     4     5    1
    12     5     6    1
    13     6     8    1
    14     8     9   ar
    15     9    10   ar
    16    10    11   ar
    17    11    14    1
    18    14    15    1
    19    14    16    1
    20    14    17    1
    21    11    12   ar
    22    12    13   ar
    23     4     7    1
    24    24    25   ar
    25    25    26   ar
    26    26    27   ar
    27    27    28    1
    28    28    29   ar
    29    29    30   ar
    30    30    31   ar
    31    31    32   ar
    32    27    23   ar
    33    32    28   ar
    34     7     1    1
    35     6     4    1
    36    13     8   ar
@<TRIPOS>MOLECULE
*****
 32 36 0 0 0
SMALL
GASTEIGER

@<TRIPOS>ATOM
      1 N         144.2110  142.2794  163.0100 N.3     1  UNL1       -0.2726
      2 C         144.8861  141.0706  162.4329 C.3     1  UNL1        0.0721
      3 C         144.6678  139.9239  163.3749 C.3     1  UNL1        0.0190
      4 C         143.8579  140.4240  164.5341 C.3     1  UNL1        0.0201
      5 C         143.8067  139.1155  165.2658 C.3     1  UNL1        0.0061
      6 C         143.1316  140.3243  165.8428 C.3     1  UNL1        0.0237
      7 C         143.5755  141.8798  164.3086 C.3     1  UNL1        0.0724
      8 C         142.3226  140.9647  166.9316 C.ar    1  UNL1       -0.0225
      9 C         142.9702  141.9329  167.8766 C.ar    1  UNL1       -0.0043
     10 C         142.1611  142.5733  168.9654 C.ar    1  UNL1        0.0035
     11 C         140.7045  142.2454  169.1090 C.ar    1  UNL1        0.0714
     12 C         140.0568  141.2772  168.1639 C.ar    1  UNL1        0.0035
     13 C         140.8659  140.6368  167.0752 C.ar    1  UNL1       -0.0043
     14 C         139.8954  142.8858  170.1977 C.3     1  UNL1        0.4186
     15 F         139.0863  143.5262  171.2865 F       1  UNL1       -0.1659
     16 F         140.7212  144.1323  170.0782 F       1  UNL1       -0.1659
     17 F         139.0696  141.6393  170.3172 F       1  UNL1       -0.1659
     18 C         144.1773  143.6477  162.3962 C.3     1  UNL1        0.0730
     19 C         143.9456  144.8518  163.2602 C.3     1  UNL1        0.0294
     20 C         142.5526  145.2168  163.6801 C.3     1  UNL1        0.0666
     21 S         141.3837  144.8178  162.8289 S.3     1  UNL1       -0.0756
     22 C         141.1413  141.9424  161.3048 C.3     1  UNL1        0.1340
     23 N         140.3993  142.3491  162.5434 N.ar    1  UNL1       -0.2884
     24 C         140.5107  143.6708  163.2439 C.ar    1  UNL1        0.1932
     25 N         139.5959  143.6441  164.4324 N.ar    1  UNL1       -0.1221
     26 N         138.9190  142.3059  164.4663 N.ar    1  UNL1       -0.1282
     27 C         139.4155  141.5055  163.2989 C.ar    1  UNL1        0.1673
     28 C         139.0010  140.1072  162.9485 C.ar    1  UNL1        0.0429
     29 C         139.5249  138.8491  163.5753 C.ar    1  UNL1        0.0105
     30 C         138.8376  137.6858  162.9239 C.ar    1  UNL1        0.0356
     31 S         137.8890  138.2249  161.8946 S.2     1  UNL1       -0.0858
     32 C         137.9900  139.7214  161.9098 C.ar    1  UNL1        0.0385
@<TRIPOS>BOND
     1    22    23    1
     2    23    24   ar
     3    24    21    1
     4    21    20    1
     5    20    19    1
     6    19    18    1
     7    18     1    1
     8     1     2    1
     9     2     3    1
    10     4     3    1
    11     4     5    1
    12     5     6    1
    13     6     8    1
    14     8     9   ar
    15     9    10   ar
    16    10    11   ar
    17    11    14    1
    18    14    15    1
    19    14    16    1
    20    14    17    1
    21    11    12   ar
    22    12    13   ar
    23     4     7    1
    24    24    25   ar
    25    25    26   ar
    26    26    27   ar
    27    27    28    1
    28    28    29   ar
    29    29    30   ar
    30    30    31   ar
    31    31    32   ar
    32    27    23   ar
    33    32    28   ar
    34     7     1    1
    35     6     4    1
    36    13     8   ar
@<TRIPOS>MOLECULE
*****
 32 36 0 0 0
SMALL
GASTEIGER

@<TRIPOS>ATOM
      1 N         138.4912  140.3021  162.6976 N.3     1  UNL1       -0.2726
      2 C         138.2948  138.9853  162.0065 C.3     1  UNL1        0.0721
      3 C         138.8632  137.9111  162.8858 C.3     1  UNL1        0.0190
      4 C         139.4109  138.5640  164.1202 C.3     1  UNL1        0.0201
      5 C         139.8855  137.2980  164.7698 C.3     1  UNL1        0.0061
      6 C         140.0819  138.6148  165.4608 C.3     1  UNL1        0.0237
      7 C         139.1810  140.0417  164.0039 C.3     1  UNL1        0.0724
      8 C         140.5827  139.4043  166.6337 C.ar    1  UNL1       -0.0225
      9 C         142.0533  139.4673  166.9226 C.ar    1  UNL1       -0.0043
     10 C         142.5540  140.2568  168.0956 C.ar    1  UNL1        0.0035
     11 C         141.5842  140.9834  168.9796 C.ar    1  UNL1        0.0714
     12 C         140.1136  140.9204  168.6907 C.ar    1  UNL1        0.0035
     13 C         139.6129  140.1309  167.5178 C.ar    1  UNL1       -0.0043
     14 C         142.0850  141.7729  170.1526 C.3     1  UNL1        0.4186
     15 F         142.5858  142.5625  171.3256 F       1  UNL1       -0.1659
     16 F         143.4652  141.7703  169.5651 F       1  UNL1       -0.1659
     17 F         140.7049  141.7756  170.7400 F       1  UNL1       -0.1659
     18 C         138.0715  141.6437  162.1742 C.3     1  UNL1        0.0730
     19 C         137.5073  142.6709  163.1104 C.3     1  UNL1        0.0294
     20 C         137.8098  144.1249  162.8992 C.3     1  UNL1        0.0666
     21 S         138.8733  144.7961  163.7168 S.3     1  UNL1       -0.0756
     22 C         141.4085  143.5944  162.0500 C.3     1  UNL1        0.1340
     23 N         141.1665  143.4367  163.5220 N.ar    1  UNL1       -0.2884
     24 C         140.0012  143.9890  164.2881 C.ar    1  UNL1        0.1932
     25 N         140.1618  143.5926  165.7258 N.ar    1  UNL1       -0.1221
     26 N         141.4264  142.7952  165.8483 N.ar    1  UNL1       -0.1282
     27 C         142.0474  142.6988  164.4862 C.ar    1  UNL1        0.1673
     28 C         143.3249  141.9892  164.1478 C.ar    1  UNL1        0.0429
     29 C         143.4631  140.5333  163.8142 C.ar    1  UNL1        0.0105
     30 C         144.9120  140.2552  163.5438 C.ar    1  UNL1        0.0356
     31 S         145.6694  141.5392  163.7104 S.2     1  UNL1       -0.0858
     32 C         144.6885  142.6109  164.0837 C.ar    1  UNL1        0.0385
@<TRIPOS>BOND
     1    22    23    1
     2    23    24   ar
     3    24    21    1
     4    21    20    1
     5    20    19    1
     6    19    18    1
     7    18     1    1
     8     1     2    1
     9     2     3    1
    10     4     3    1
    11     4     5    1
    12     5     6    1
    13     6     8    1
    14     8     9   ar
    15     9    10   ar
    16    10    11   ar
    17    11    14    1
    18    14    15    1
    19    14    16    1
    20    14    17    1
    21    11    12   ar
    22    12    13   ar
    23     4     7    1
    24    24    25   ar
    25    25    26   ar
    26    26    27   ar
    27    27    28    1
    28    28    29   ar
    29    29    30   ar
    30    30    31   ar
    31    31    32   ar
    32    27    23   ar
    33    32    28   ar
    34     7     1    1
    35     6     4    1
    36    13     8   ar
@<TRIPOS>MOLECULE
*****
 32 36 0 0 0
SMALL
GASTEIGER

@<TRIPOS>ATOM
      1 N         142.2323  138.3722  163.3472 N.3     1  UNL1       -0.2726
      2 C         143.4705  138.4690  162.5060 C.3     1  UNL1        0.0721
      3 C         144.3134  139.5848  163.0486 C.3     1  UNL1        0.0190
      4 C         143.5962  140.1776  164.2251 C.3     1  UNL1        0.0201
      5 C         144.6344  141.2149  164.5353 C.3     1  UNL1        0.0061
      6 C         143.3963  141.1181  165.3765 C.3     1  UNL1        0.0237
      7 C         142.3100  139.4282  164.4097 C.3     1  UNL1        0.0724
      8 C         142.5660  141.6051  166.5269 C.ar    1  UNL1       -0.0225
      9 C         142.9884  141.3083  167.9353 C.ar    1  UNL1       -0.0043
     10 C         142.1581  141.7954  169.0857 C.ar    1  UNL1        0.0035
     11 C         140.9055  142.5792  168.8277 C.ar    1  UNL1        0.0714
     12 C         140.4831  142.8760  167.4193 C.ar    1  UNL1        0.0035
     13 C         141.3134  142.3889  166.2689 C.ar    1  UNL1       -0.0043
     14 C         140.0752  143.0662  169.9781 C.3     1  UNL1        0.4186
     15 F         139.2449  143.5533  171.1285 F       1  UNL1       -0.1659
     16 F         139.3741  141.7414  170.0329 F       1  UNL1       -0.1659
     17 F         140.7764  144.3911  169.9232 F       1  UNL1       -0.1659
     18 C         141.1129  137.3916  163.1589 C.3     1  UNL1        0.0730
     19 C         139.7230  137.7469  163.5970 C.3     1  UNL1        0.0294
     20 C         138.6001  137.7468  162.6024 C.3     1  UNL1        0.0666
     21 S         138.4773  138.8647  161.6098 S.3     1  UNL1       -0.0756
     22 C         138.8617  141.4805  163.5227 C.3     1  UNL1        0.1340
     23 N         139.7442  141.0909  162.3740 N.ar    1  UNL1       -0.2884
     24 C         139.5675  139.8885  161.4948 C.ar    1  UNL1        0.1932
     25 N         140.6724  139.8897  160.4802 N.ar    1  UNL1       -0.1221
     26 N         141.5319  141.0928  160.7325 N.ar    1  UNL1       -0.1282
     27 C         140.9583  141.8353  161.9029 C.ar    1  UNL1        0.1673
     28 C         141.5032  143.0999  162.4978 C.ar    1  UNL1        0.0429
     29 C         142.9514  143.4808  162.5848 C.ar    1  UNL1        0.0105
     30 C         143.0387  144.8220  163.2508 C.ar    1  UNL1        0.0356
     31 S         141.6445  145.2699  163.5754 S.2     1  UNL1       -0.0858
     32 C         140.6954  144.2057  163.1100 C.ar    1  UNL1        0.0385
@<TRIPOS>BOND
     1    22    23    1
     2    23    24   ar
     3    24    21    1
     4    21    20    1
     5    20    19    1
     6    19    18    1
     7    18     1    1
     8     1     2    1
     9     2     3    1
    10     4     3    1
    11     4     5    1
    12     5     6    1
    13     6     8    1
    14     8     9   ar
    15     9    10   ar
    16    10    11   ar
    17    11    14    1
    18    14    15    1
    19    14    16    1
    20    14    17    1
    21    11    12   ar
    22    12    13   ar
    23     4     7    1
    24    24    25   ar
    25    25    26   ar
    26    26    27   ar
    27    27    28    1
    28    28    29   ar
    29    29    30   ar
    30    30    31   ar
    31    31    32   ar
    32    27    23   ar
    33    32    28   ar
    34     7     1    1
    35     6     4    1
    36    13     8   ar
@<TRIPOS>MOLECULE
*****
 32 36 0 0 0
SMALL
GASTEIGER

@<TRIPOS>ATOM
      1 N         143.4560  143.6901  164.0940 N.3     1  UNL1       -0.2726
      2 C         143.2069  145.1205  163.7172 C.3     1  UNL1        0.0721
      3 C         141.7400  145.3921  163.8731 C.3     1  UNL1        0.0190
      4 C         141.0824  144.1297  164.3461 C.3     1  UNL1        0.0201
      5 C         139.6922  144.6897  164.4056 C.3     1  UNL1        0.0061
      6 C         139.9412  143.2593  164.7823 C.3     1  UNL1        0.0237
      7 C         142.1430  143.0777  164.4826 C.3     1  UNL1        0.0724
      8 C         139.4262  141.9310  165.2516 C.ar    1  UNL1       -0.0225
      9 C         138.4694  141.1532  164.3974 C.ar    1  UNL1       -0.0043
     10 C         137.9544  139.8249  164.8668 C.ar    1  UNL1        0.0035
     11 C         138.3961  139.2744  166.1903 C.ar    1  UNL1        0.0714
     12 C         139.3528  140.0522  167.0445 C.ar    1  UNL1        0.0035
     13 C         139.8679  141.3805  166.5752 C.ar    1  UNL1       -0.0043
     14 C         137.8810  137.9461  166.6597 C.3     1  UNL1        0.4186
     15 F         137.3659  136.6178  167.1291 F       1  UNL1       -0.1659
     16 F         138.5538  137.2752  165.4990 F       1  UNL1       -0.1659
     17 F         137.2083  138.6171  167.8203 F       1  UNL1       -0.1659
     18 C         144.7847  142.9942  164.0838 C.3     1  UNL1        0.0730
     19 C         144.8597  141.5170  164.3335 C.3     1  UNL1        0.0294
     20 C         145.2402  140.5865  163.2203 C.3     1  UNL1        0.0666
     21 S         144.1763  139.8497  162.4619 S.3     1  UNL1       -0.0756
     22 C         144.1314  142.4056  160.4333 C.3     1  UNL1        0.1340
     23 N         142.9328  141.7521  161.0549 N.ar    1  UNL1       -0.2884
     24 C         142.9534  140.5774  161.9873 C.ar    1  UNL1        0.1932
     25 N         141.5365  140.2579  162.3619 N.ar    1  UNL1       -0.1221
     26 N         140.6402  141.2353  161.6609 N.ar    1  UNL1       -0.1282
     27 C         141.5031  142.1588  160.8531 C.ar    1  UNL1        0.1673
     28 C         141.0210  143.2903  159.9944 C.ar    1  UNL1        0.0429
     29 C         140.8744  144.7207  160.4214 C.ar    1  UNL1        0.0105
     30 C         140.3637  145.5044  159.2489 C.ar    1  UNL1        0.0356
     31 S         140.1946  144.5584  158.0972 S.2     1  UNL1       -0.0858
     32 C         140.6009  143.1899  158.5579 C.ar    1  UNL1        0.0385
@<TRIPOS>BOND
     1    22    23    1
     2    23    24   ar
     3    24    21    1
     4    21    20    1
     5    20    19    1
     6    19    18    1
     7    18     1    1
     8     1     2    1
     9     2     3    1
    10     4     3    1
    11     4     5    1
    12     5     6    1
    13     6     8    1
    14     8     9   ar
    15     9    10   ar
    16    10    11   ar
    17    11    14    1
    18    14    15    1
    19    14    16    1
    20    14    17    1
    21    11    12   ar
    22    12    13   ar
    23     4     7    1
    24    24    25   ar
    25    25    26   ar
    26    26    27   ar
    27    27    28    1
    28    28    29   ar
    29    29    30   ar
    30    30    31   ar
    31    31    32   ar
    32    27    23   ar
    33    32    28   ar
    34     7     1    1
    35     6     4    1
    36    13     8   ar
@<TRIPOS>MOLECULE
*****
 32 36 0 0 0
SMALL
GASTEIGER

@<TRIPOS>ATOM
      1 N         142.5838  144.5994  163.2627 N.3     1  UNL1       -0.2726
      2 C         143.7714  144.4406  162.3603 C.3     1  UNL1        0.0721
      3 C         144.5892  143.2905  162.8687 C.3     1  UNL1        0.0190
      4 C         143.9071  142.7385  164.0852 C.3     1  UNL1        0.0201
      5 C         144.9114  141.6565  164.3508 C.3     1  UNL1        0.0061
      6 C         143.7238  141.8154  165.2533 C.3     1  UNL1        0.0237
      7 C         142.6676  143.5475  164.3288 C.3     1  UNL1        0.0724
      8 C         142.9323  141.3742  166.4486 C.ar    1  UNL1       -0.0225
      9 C         142.6778  142.3318  167.5747 C.ar    1  UNL1       -0.0043
     10 C         141.8863  141.8906  168.7700 C.ar    1  UNL1        0.0035
     11 C         141.3494  140.4917  168.8393 C.ar    1  UNL1        0.0714
     12 C         141.6040  139.5340  167.7132 C.ar    1  UNL1        0.0035
     13 C         142.3954  139.9753  166.5178 C.ar    1  UNL1       -0.0043
     14 C         140.5579  140.0505  170.0346 C.3     1  UNL1        0.4186
     15 F         139.7664  139.6092  171.2300 F       1  UNL1       -0.1659
     16 F         141.5153  138.9160  170.2498 F       1  UNL1       -0.1659
     17 F         139.6005  141.1849  169.8194 F       1  UNL1       -0.1659
     18 C         141.5022  145.6294  163.1235 C.3     1  UNL1        0.0730
     19 C         140.3346  145.3731  162.2174 C.3     1  UNL1        0.0294
     20 C         140.5639  144.8744  160.8214 C.3     1  UNL1        0.0666
     21 S         139.9178  143.6000  160.3647 S.3     1  UNL1       -0.0756
     22 C         141.0631  141.1473  162.1874 C.3     1  UNL1        0.1340
     23 N         139.6488  141.6467  162.1695 N.ar    1  UNL1       -0.2884
     24 C         139.1224  142.7741  161.3317 C.ar    1  UNL1        0.1932
     25 N         137.6608  142.9305  161.6307 N.ar    1  UNL1       -0.1221
     26 N         137.2839  141.8998  162.6532 N.ar    1  UNL1       -0.1282
     27 C         138.5126  141.1063  162.9863 C.ar    1  UNL1        0.1673
     28 C         138.5912  139.9717  163.9643 C.ar    1  UNL1        0.0429
     29 C         138.3023  140.0530  165.4340 C.ar    1  UNL1        0.0105
     30 C         138.5050  138.6883  166.0224 C.ar    1  UNL1        0.0356
     31 S         138.9192  137.7635  164.9164 S.2     1  UNL1       -0.0858
     32 C         138.9724  138.5567  163.6444 C.ar    1  UNL1        0.0385
@<TRIPOS>BOND
     1    22    23    1
     2    23    24   ar
     3    24    21    1
     4    21    20    1
     5    20    19    1
     6    19    18    1
     7    18     1    1
     8     1     2    1
     9     2     3    1
    10     4     3    1
    11     4     5    1
    12     5     6    1
    13     6     8    1
    14     8     9   ar
    15     9    10   ar
    16    10    11   ar
    17    11    14    1
    18    14    15    1
    19    14    16    1
    20    14    17    1
    21    11    12   ar
    22    12    13   ar
    23     4     7    1
    24    24    25   ar
    25    25    26   ar
    26    26    27   ar
    27    27    28    1
    28    28    29   ar
    29    29    30   ar
    30    30    31   ar
    31    31    32   ar
    32    27    23   ar
    33    32    28   ar
    34     7     1    1
    35     6     4    1
    36    13     8   ar
@<TRIPOS>MOLECULE
*****
 32 36 0 0 0
SMALL
GASTEIGER

@<TRIPOS>ATOM
      1 N         138.0108  141.4361  162.4619 N.3     1  UNL1       -0.2726
      2 C         137.6651  140.3748  161.4598 C.3     1  UNL1        0.0721
      3 C         138.0534  139.0467  162.0387 C.3     1  UNL1        0.0190
      4 C         138.6392  139.2871  163.3985 C.3     1  UNL1        0.0201
      5 C         138.9172  137.8456  163.7066 C.3     1  UNL1        0.0061
      6 C         139.2630  138.9069  164.7086 C.3     1  UNL1        0.0237
      7 C         138.6129  140.7639  163.6600 C.3     1  UNL1        0.0724
      8 C         139.8228  139.3002  166.0435 C.ar    1  UNL1       -0.0225
      9 C         141.3073  139.3978  166.2350 C.ar    1  UNL1       -0.0043
     10 C         141.8671  139.7911  167.5699 C.ar    1  UNL1        0.0035
     11 C         140.9423  140.0867  168.7133 C.ar    1  UNL1        0.0714
     12 C         139.4578  139.9890  168.5218 C.ar    1  UNL1        0.0035
     13 C         138.8980  139.5958  167.1869 C.ar    1  UNL1       -0.0043
     14 C         141.5021  140.4800  170.0482 C.3     1  UNL1        0.4186
     15 F         142.0620  140.8732  171.3832 F       1  UNL1       -0.1659
     16 F         140.1888  141.1050  170.4148 F       1  UNL1       -0.1659
     17 F         142.8154  139.8549  169.6816 F       1  UNL1       -0.1659
     18 C         137.7928  142.9108  162.2951 C.3     1  UNL1        0.0730
     19 C         138.3024  143.8664  163.3329 C.3     1  UNL1        0.0294
     20 C         139.0438  145.1018  162.9155 C.3     1  UNL1        0.0666
     21 S         140.5418  145.0882  162.8409 S.3     1  UNL1       -0.0756
     22 C         141.1112  142.6525  160.7450 C.3     1  UNL1        0.1340
     23 N         141.5578  142.7069  162.1759 N.ar    1  UNL1       -0.2884
     24 C         141.2961  143.8264  163.1393 C.ar    1  UNL1        0.1932
     25 N         141.9211  143.4628  164.4535 N.ar    1  UNL1       -0.1221
     26 N         142.5691  142.1184  164.3024 N.ar    1  UNL1       -0.1282
     27 C         142.3446  141.6512  162.8947 C.ar    1  UNL1        0.1673
     28 C         142.8229  140.3558  162.3088 C.ar    1  UNL1        0.0429
     29 C         142.3507  138.9856  162.6956 C.ar    1  UNL1        0.0105
     30 C         143.0933  137.9862  161.8591 C.ar    1  UNL1        0.0356
     31 S         144.0245  138.7387  160.9555 S.2     1  UNL1       -0.0858
     32 C         143.8574  140.2033  161.2334 C.ar    1  UNL1        0.0385
@<TRIPOS>BOND
     1    22    23    1
     2    23    24   ar
     3    24    21    1
     4    21    20    1
     5    20    19    1
     6    19    18    1
     7    18     1    1
     8     1     2    1
     9     2     3    1
    10     4     3    1
    11     4     5    1
    12     5     6    1
    13     6     8    1
    14     8     9   ar
    15     9    10   ar
    16    10    11   ar
    17    11    14    1
    18    14    15    1
    19    14    16    1
    20    14    17    1
    21    11    12   ar
    22    12    13   ar
    23     4     7    1
    24    24    25   ar
    25    25    26   ar
    26    26    27   ar
    27    27    28    1
    28    28    29   ar
    29    29    30   ar
    30    30    31   ar
    31    31    32   ar
    32    27    23   ar
    33    32    28   ar
    34     7     1    1
    35     6     4    1
    36    13     8   ar
@<TRIPOS>MOLECULE
*****
 32 36 0 0 0
SMALL
GASTEIGER

@<TRIPOS>ATOM
      1 N         138.7429  143.5261  164.2207 N.3     1  UNL1       -0.2726
      2 C         137.7280  142.9716  163.2654 C.3     1  UNL1        0.0721
      3 C         137.5613  141.5108  163.5628 C.3     1  UNL1        0.0190
      4 C         138.4731  141.1626  164.7017 C.3     1  UNL1        0.0201
      5 C         138.0994  139.7112  164.7636 C.3     1  UNL1        0.0061
      6 C         139.1144  140.2657  165.7189 C.3     1  UNL1        0.0237
      7 C         139.2034  142.4081  165.1084 C.3     1  UNL1        0.0724
      8 C         140.0705  140.0681  166.8576 C.ar    1  UNL1       -0.0225
      9 C         141.5137  139.7666  166.5814 C.ar    1  UNL1       -0.0043
     10 C         142.4699  139.5690  167.7201 C.ar    1  UNL1        0.0035
     11 C         141.9828  139.6728  169.1350 C.ar    1  UNL1        0.0714
     12 C         140.5396  139.9743  169.4112 C.ar    1  UNL1        0.0035
     13 C         139.5834  140.1719  168.2725 C.ar    1  UNL1       -0.0043
     14 C         142.9390  139.4752  170.2737 C.3     1  UNL1        0.4186
     15 F         143.8952  139.2776  171.4125 F       1  UNL1       -0.1659
     16 F         142.6321  138.0069  170.2765 F       1  UNL1       -0.1659
     17 F         143.2458  140.9435  170.2709 F       1  UNL1       -0.1659
     18 C         139.2145  144.9489  164.2782 C.3     1  UNL1        0.0730
     19 C         140.3164  145.4110  163.3714 C.3     1  UNL1        0.0294
     20 C         140.0649  145.5580  161.8999 C.3     1  UNL1        0.0666
     21 S         140.7704  144.6623  160.9252 S.3     1  UNL1       -0.0756
     22 C         142.1899  142.5417  162.9593 C.3     1  UNL1        0.1340
     23 N         141.1865  142.2068  161.8958 N.ar    1  UNL1       -0.2884
     24 C         140.5340  143.1815  160.9609 C.ar    1  UNL1        0.1932
     25 N         139.6036  142.4155  160.0678 N.ar    1  UNL1       -0.1221
     26 N         139.6810  140.9673  160.4508 N.ar    1  UNL1       -0.1282
     27 C         140.6593  140.8382  161.5806 C.ar    1  UNL1        0.1673
     28 C         141.0431  139.5643  162.2734 C.ar    1  UNL1        0.0429
     29 C         142.3560  139.2861  162.9434 C.ar    1  UNL1        0.0105
     30 C         142.3056  137.8949  163.5020 C.ar    1  UNL1        0.0356
     31 S         140.9616  137.3134  163.1773 S.2     1  UNL1       -0.0858
     32 C         140.1813  138.3452  162.4180 C.ar    1  UNL1        0.0385
@<TRIPOS>BOND
     1    22    23    1
     2    23    24   ar
     3    24    21    1
     4    21    20    1
     5    20    19    1
     6    19    18    1
     7    18     1    1
     8     1     2    1
     9     2     3    1
    10     4     3    1
    11     4     5    1
    12     5     6    1
    13     6     8    1
    14     8     9   ar
    15     9    10   ar
    16    10    11   ar
    17    11    14    1
    18    14    15    1
    19    14    16    1
    20    14    17    1
    21    11    12   ar
    22    12    13   ar
    23     4     7    1
    24    24    25   ar
    25    25    26   ar
    26    26    27   ar
    27    27    28    1
    28    28    29   ar
    29    29    30   ar
    30    30    31   ar
    31    31    32   ar
    32    27    23   ar
    33    32    28   ar
    34     7     1    1
    35     6     4    1
    36    13     8   ar
