@<TRIPOS>MOLECULE
*****
 24 25 0 0 0
SMALL
GASTEIGER

@<TRIPOS>ATOM
      1 C         139.2582  143.8907  161.7540 C.ar    1  UNL1        0.1323
      2 N         139.9539  143.1608  162.8644 N.ar    1  UNL1       -0.2297
      3 C         138.9092  142.6691  163.8220 C.ar    1  UNL1        0.0996
      4 C         137.5678  143.0953  163.3033 C.ar    1  UNL1        0.0927
      5 N         137.7835  143.8502  162.0253 N.ar    1  UNL1       -0.3385
      6 H         137.0805  144.2492  161.4632 H       1  UNL1        0.1672
      7 C         139.1617  141.8884  165.0777 C.ar    1  UNL1        0.0194
      8 C         138.5348  140.5380  165.2600 C.ar    1  UNL1        0.0047
      9 C         138.7873  139.7573  166.5157 C.ar    1  UNL1        0.0372
     10 C         139.6666  140.3271  167.5891 C.ar    1  UNL1        0.1468
     11 C         140.2935  141.6776  167.4068 C.ar    1  UNL1        0.0372
     12 C         140.0410  142.4582  166.1511 C.ar    1  UNL1        0.0047
     13 O         139.9191  139.5464  168.8448 O.3     1  UNL1       -0.4045
     14 C         140.1928  140.2652  170.1326 C.3     1  UNL1        0.5753
     15 F         140.4664  140.9840  171.4204 F       1  UNL1       -0.1328
     16 F         138.8025  140.8279  170.1140 F       1  UNL1       -0.1328
     17 F         141.5831  139.7025  170.1512 F       1  UNL1       -0.1328
     18 C         140.5834  145.2015  159.4033 C.3     1  UNL1        0.0262
     19 C         139.9208  144.5461  160.5787 C.3     1  UNL1        0.1231
     20 N         139.2735  143.5528  159.6598 N.3     1  UNL1       -0.3155
     21 H         139.5515  143.7479  158.6980 H       1  UNL1        0.1192
     22 H         138.2593  143.6246  159.7417 H       1  UNL1        0.1192
     23 C         140.5682  145.5394  161.4975 C.3     1  UNL1        0.2144
     24 F         139.7700  146.6851  162.0456 F       1  UNL1       -0.2324
@<TRIPOS>BOND
     1    19    18    1
     2    19    20    1
     3    19    23    1
     4    23    24    1
     5    19     1    1
     6     1     2   ar
     7     2     3   ar
     8     3     7    1
     9     7     8   ar
    10     8     9   ar
    11     9    10   ar
    12    10    13    1
    13    13    14    1
    14    14    15    1
    15    14    16    1
    16    14    17    1
    17    10    11   ar
    18    11    12   ar
    19     3     4   ar
    20     4     5   ar
    21     5     1   ar
    22    12     7   ar
    23    20    21    1
    24    20    22    1
    25     5     6    1
@<TRIPOS>MOLECULE
*****
 24 25 0 0 0
SMALL
GASTEIGER

@<TRIPOS>ATOM
      1 C         141.8549  144.5483  161.6797 C.ar    1  UNL1        0.1323
      2 N         141.1593  143.8953  162.8371 N.ar    1  UNL1       -0.2297
      3 C         142.1606  143.7185  163.9399 C.ar    1  UNL1        0.0996
      4 C         143.4751  144.2622  163.4640 C.ar    1  UNL1        0.0927
      5 N         143.2862  144.7751  162.0672 N.ar    1  UNL1       -0.3385
      6 H         143.9798  145.1880  161.5036 H       1  UNL1        0.1672
      7 C         141.8942  143.1055  165.2828 C.ar    1  UNL1        0.0194
      8 C         140.5088  143.1308  165.8573 C.ar    1  UNL1        0.0047
      9 C         140.2424  142.5179  167.2001 C.ar    1  UNL1        0.0372
     10 C         141.3614  141.8796  167.9685 C.ar    1  UNL1        0.1468
     11 C         142.7468  141.8543  167.3941 C.ar    1  UNL1        0.0372
     12 C         143.0132  142.4672  166.0512 C.ar    1  UNL1        0.0047
     13 O         141.0950  141.2667  169.3114 O.3     1  UNL1       -0.4045
     14 C         139.6954  140.8939  169.7013 C.3     1  UNL1        0.5753
     15 F         138.2957  140.5211  170.0913 F       1  UNL1       -0.1328
     16 F         139.5825  142.1564  170.5033 F       1  UNL1       -0.1328
     17 F         139.8082  139.6313  168.8993 F       1  UNL1       -0.1328
     18 C         140.6035  145.2734  159.0514 C.3     1  UNL1        0.0262
     19 C         141.2292  144.9109  160.3655 C.3     1  UNL1        0.1231
     20 N         142.4497  144.4157  159.6478 N.3     1  UNL1       -0.3155
     21 H         142.3252  144.5359  158.6426 H       1  UNL1        0.1192
     22 H         142.5897  143.4273  159.8572 H       1  UNL1        0.1192
     23 C         140.0087  145.4061  161.0833 C.3     1  UNL1        0.2144
     24 F         140.0604  146.6945  161.8497 F       1  UNL1       -0.2324
@<TRIPOS>BOND
     1    19    18    1
     2    19    20    1
     3    19    23    1
     4    23    24    1
     5    19     1    1
     6     1     2   ar
     7     2     3   ar
     8     3     7    1
     9     7     8   ar
    10     8     9   ar
    11     9    10   ar
    12    10    13    1
    13    13    14    1
    14    14    15    1
    15    14    16    1
    16    14    17    1
    17    10    11   ar
    18    11    12   ar
    19     3     4   ar
    20     4     5   ar
    21     5     1   ar
    22    12     7   ar
    23    20    21    1
    24    20    22    1
    25     5     6    1
@<TRIPOS>MOLECULE
*****
 24 25 0 0 0
SMALL
GASTEIGER

@<TRIPOS>ATOM
      1 C         143.0467  143.6386  161.7321 C.ar    1  UNL1        0.1323
      2 N         142.5307  142.7530  162.8273 N.ar    1  UNL1       -0.2297
      3 C         142.6450  143.5021  164.1218 C.ar    1  UNL1        0.0996
      4 C         143.2316  144.8507  163.8267 C.ar    1  UNL1        0.0927
      5 N         143.4799  144.9351  162.3498 N.ar    1  UNL1       -0.3385
      6 H         143.8604  145.7060  161.8701 H       1  UNL1        0.1672
      7 C         142.2432  142.9921  165.4740 C.ar    1  UNL1        0.0194
      8 C         143.2888  142.5064  166.4335 C.ar    1  UNL1        0.0047
      9 C         142.8869  141.9965  167.7857 C.ar    1  UNL1        0.0372
     10 C         141.4395  141.9722  168.1784 C.ar    1  UNL1        0.1468
     11 C         140.3938  142.4579  167.2189 C.ar    1  UNL1        0.0372
     12 C         140.7957  142.9679  165.8667 C.ar    1  UNL1        0.0047
     13 O         141.0376  141.4622  169.5306 O.3     1  UNL1       -0.4045
     14 C         139.6420  140.9625  169.7594 C.3     1  UNL1        0.5753
     15 F         138.2462  140.4628  169.9882 F       1  UNL1       -0.1328
     16 F         139.2803  142.2676  170.4041 F       1  UNL1       -0.1328
     17 F         140.0036  139.6573  169.1147 F       1  UNL1       -0.1328
     18 C         143.1877  142.9396  158.8181 C.3     1  UNL1        0.0262
     19 C         143.1172  143.2891  160.2751 C.3     1  UNL1        0.1231
     20 N         142.2278  144.4532  159.9528 N.3     1  UNL1       -0.3155
     21 H         142.0714  144.4930  158.9457 H       1  UNL1        0.1192
     22 H         142.6732  145.3171  160.2622 H       1  UNL1        0.1192
     23 C         144.0065  142.1250  160.5973 C.3     1  UNL1        0.2144
     24 F         145.3435  142.3570  161.2366 F       1  UNL1       -0.2324
@<TRIPOS>BOND
     1    19    18    1
     2    19    20    1
     3    19    23    1
     4    23    24    1
     5    19     1    1
     6     1     2   ar
     7     2     3   ar
     8     3     7    1
     9     7     8   ar
    10     8     9   ar
    11     9    10   ar
    12    10    13    1
    13    13    14    1
    14    14    15    1
    15    14    16    1
    16    14    17    1
    17    10    11   ar
    18    11    12   ar
    19     3     4   ar
    20     4     5   ar
    21     5     1   ar
    22    12     7   ar
    23    20    21    1
    24    20    22    1
    25     5     6    1
@<TRIPOS>MOLECULE
*****
 24 25 0 0 0
SMALL
GASTEIGER

@<TRIPOS>ATOM
      1 C         138.5325  139.0874  162.7917 C.ar    1  UNL1        0.1323
      2 N         139.0687  140.0222  163.8351 N.ar    1  UNL1       -0.2297
      3 C         139.4827  139.2039  165.0220 C.ar    1  UNL1        0.0996
      4 C         139.2024  137.7632  164.7123 C.ar    1  UNL1        0.0927
      5 N         138.6151  137.6912  163.3339 N.ar    1  UNL1       -0.3385
      6 H         138.3333  136.8715  162.8670 H       1  UNL1        0.1672
      7 C         140.0734  139.7332  166.2952 C.ar    1  UNL1        0.0194
      8 C         141.4997  140.1966  166.3245 C.ar    1  UNL1        0.0047
      9 C         142.0903  140.7259  167.5977 C.ar    1  UNL1        0.0372
     10 C         141.2545  140.7919  168.8415 C.ar    1  UNL1        0.1468
     11 C         139.8282  140.3285  168.8122 C.ar    1  UNL1        0.0372
     12 C         139.2376  139.7992  167.5391 C.ar    1  UNL1        0.0047
     13 O         141.8452  141.3213  170.1147 O.3     1  UNL1       -0.4045
     14 C         143.1767  142.0116  170.0936 C.3     1  UNL1        0.5753
     15 F         144.5083  142.7020  170.0725 F       1  UNL1       -0.1328
     16 F         142.5005  143.3053  169.7488 F       1  UNL1       -0.1328
     17 F         143.8529  140.7179  170.4384 F       1  UNL1       -0.1328
     18 C         137.4797  139.8722  160.0944 C.3     1  UNL1        0.0262
     19 C         138.0061  139.4798  161.4431 C.3     1  UNL1        0.1231
     20 N         137.1178  140.5025  162.0873 N.3     1  UNL1       -0.3155
     21 H         136.5790  140.9859  161.3687 H       1  UNL1        0.1192
     22 H         137.6894  141.1775  162.5954 H       1  UNL1        0.1192
     23 C         138.8944  138.4571  160.7988 C.3     1  UNL1        0.2144
     24 F         140.3834  138.6372  160.8197 F       1  UNL1       -0.2324
@<TRIPOS>BOND
     1    19    18    1
     2    19    20    1
     3    19    23    1
     4    23    24    1
     5    19     1    1
     6     1     2   ar
     7     2     3   ar
     8     3     7    1
     9     7     8   ar
    10     8     9   ar
    11     9    10   ar
    12    10    13    1
    13    13    14    1
    14    14    15    1
    15    14    16    1
    16    14    17    1
    17    10    11   ar
    18    11    12   ar
    19     3     4   ar
    20     4     5   ar
    21     5     1   ar
    22    12     7   ar
    23    20    21    1
    24    20    22    1
    25     5     6    1
@<TRIPOS>MOLECULE
*****
 24 25 0 0 0
SMALL
GASTEIGER

@<TRIPOS>ATOM
      1 C         142.1304  138.1242  162.6516 C.ar    1  UNL1        0.1323
      2 N         142.2087  139.1899  163.7043 N.ar    1  UNL1       -0.2297
      3 C         141.5177  138.6787  164.9337 C.ar    1  UNL1        0.0996
      4 C         141.0124  137.2972  164.6408 C.ar    1  UNL1        0.0927
      5 N         141.3910  136.9544  163.2305 N.ar    1  UNL1       -0.3385
      6 H         141.1896  136.1099  162.7662 H       1  UNL1        0.1672
      7 C         141.3599  139.4193  166.2286 C.ar    1  UNL1        0.0194
      8 C         142.5279  139.5608  167.1589 C.ar    1  UNL1        0.0047
      9 C         142.3700  140.3013  168.4538 C.ar    1  UNL1        0.0372
     10 C         141.0440  140.9003  168.8183 C.ar    1  UNL1        0.1468
     11 C         139.8760  140.7589  167.8880 C.ar    1  UNL1        0.0372
     12 C         140.0339  140.0184  166.5931 C.ar    1  UNL1        0.0047
     13 O         140.8862  141.6409  170.1132 O.3     1  UNL1       -0.4045
     14 C         140.6344  143.1195  170.1057 C.3     1  UNL1        0.5753
     15 F         140.3826  144.5983  170.0982 F       1  UNL1       -0.1328
     16 F         139.2995  142.8955  170.7521 F       1  UNL1       -0.1328
     17 F         141.9693  143.3435  169.4593 F       1  UNL1       -0.1328
     18 C         143.2550  138.3011  159.8761 C.3     1  UNL1        0.0262
     19 C         142.6927  138.2126  161.2638 C.3     1  UNL1        0.1231
     20 N         144.0830  138.1479  161.8231 N.3     1  UNL1       -0.3155
     21 H         144.7587  138.1899  161.0601 H       1  UNL1        0.1192
     22 H         144.2030  137.2742  162.3357 H       1  UNL1        0.1192
     23 C         141.3024  138.2774  160.7046 C.3     1  UNL1        0.2144
     24 F         140.3891  139.4019  161.0938 F       1  UNL1       -0.2324
@<TRIPOS>BOND
     1    19    18    1
     2    19    20    1
     3    19    23    1
     4    23    24    1
     5    19     1    1
     6     1     2   ar
     7     2     3   ar
     8     3     7    1
     9     7     8   ar
    10     8     9   ar
    11     9    10   ar
    12    10    13    1
    13    13    14    1
    14    14    15    1
    15    14    16    1
    16    14    17    1
    17    10    11   ar
    18    11    12   ar
    19     3     4   ar
    20     4     5   ar
    21     5     1   ar
    22    12     7   ar
    23    20    21    1
    24    20    22    1
    25     5     6    1
@<TRIPOS>MOLECULE
*****
 24 25 0 0 0
SMALL
GASTEIGER

@<TRIPOS>ATOM
      1 C         139.4598  144.3672  162.0299 C.ar    1  UNL1        0.1323
      2 N         140.1132  143.4322  163.0039 N.ar    1  UNL1       -0.2297
      3 C         139.1300  143.1424  164.0991 C.ar    1  UNL1        0.0996
      4 C         137.8689  143.8983  163.8019 C.ar    1  UNL1        0.0927
      5 N         138.0727  144.6552  162.5231 N.ar    1  UNL1       -0.3385
      6 H         137.4121  145.2387  162.0844 H       1  UNL1        0.1672
      7 C         139.3664  142.2528  165.2836 C.ar    1  UNL1        0.0194
      8 C         140.1903  142.7431  166.4371 C.ar    1  UNL1        0.0047
      9 C         140.4267  141.8535  167.6215 C.ar    1  UNL1        0.0372
     10 C         139.8392  140.4737  167.6523 C.ar    1  UNL1        0.1468
     11 C         139.0153  139.9835  166.4987 C.ar    1  UNL1        0.0372
     12 C         138.7789  140.8730  165.3144 C.ar    1  UNL1        0.0047
     13 O         140.0756  139.5842  168.8367 O.3     1  UNL1       -0.4045
     14 C         140.3371  140.1853  170.1859 C.3     1  UNL1        0.5753
     15 F         140.5986  140.7865  171.5351 F       1  UNL1       -0.1328
     16 F         141.7641  139.7293  170.1126 F       1  UNL1       -0.1328
     17 F         138.9100  140.6414  170.2592 F       1  UNL1       -0.1328
     18 C         140.7078  145.4679  159.5337 C.3     1  UNL1        0.0262
     19 C         140.0838  144.9175  160.7818 C.3     1  UNL1        0.1231
     20 N         140.3963  146.1958  161.5017 N.3     1  UNL1       -0.3155
     21 H         140.8672  146.8384  160.8647 H       1  UNL1        0.1192
     22 H         141.0043  145.9985  162.2966 H       1  UNL1        0.1192
     23 C         139.7713  143.6393  160.0619 C.3     1  UNL1        0.2144
     24 F         139.5052  143.6555  158.5858 F       1  UNL1       -0.2324
@<TRIPOS>BOND
     1    19    18    1
     2    19    20    1
     3    19    23    1
     4    23    24    1
     5    19     1    1
     6     1     2   ar
     7     2     3   ar
     8     3     7    1
     9     7     8   ar
    10     8     9   ar
    11     9    10   ar
    12    10    13    1
    13    13    14    1
    14    14    15    1
    15    14    16    1
    16    14    17    1
    17    10    11   ar
    18    11    12   ar
    19     3     4   ar
    20     4     5   ar
    21     5     1   ar
    22    12     7   ar
    23    20    21    1
    24    20    22    1
    25     5     6    1
@<TRIPOS>MOLECULE
*****
 24 25 0 0 0
SMALL
GASTEIGER

@<TRIPOS>ATOM
      1 C         143.6148  143.3689  161.7042 C.ar    1  UNL1        0.1323
      2 N         143.2317  142.5119  162.8742 N.ar    1  UNL1       -0.2297
      3 C         142.7920  143.4165  163.9871 C.ar    1  UNL1        0.0996
      4 C         142.9033  144.8325  163.5049 C.ar    1  UNL1        0.0927
      5 N         143.4118  144.8031  162.0940 N.ar    1  UNL1       -0.3385
      6 H         143.5823  145.5874  161.5240 H       1  UNL1        0.1672
      7 C         142.3233  142.9813  165.3440 C.ar    1  UNL1        0.0194
      8 C         140.8620  143.0186  165.6803 C.ar    1  UNL1        0.0047
      9 C         140.3934  142.5835  167.0371 C.ar    1  UNL1        0.0372
     10 C         141.3860  142.1111  168.0576 C.ar    1  UNL1        0.1468
     11 C         142.8473  142.0737  167.7213 C.ar    1  UNL1        0.0372
     12 C         143.3160  142.5089  166.3644 C.ar    1  UNL1        0.0047
     13 O         140.9173  141.6759  169.4145 O.3     1  UNL1       -0.4045
     14 C         140.0686  142.5928  170.2445 C.3     1  UNL1        0.5753
     15 F         139.2199  143.5098  171.0746 F       1  UNL1       -0.1328
     16 F         138.9781  141.5632  170.2669 F       1  UNL1       -0.1328
     17 F         141.1592  143.6225  170.2220 F       1  UNL1       -0.1328
     18 C         144.6118  142.3869  159.0506 C.3     1  UNL1        0.0262
     19 C         144.1133  142.8779  160.3774 C.3     1  UNL1        0.1231
     20 N         145.4397  142.5510  160.9967 N.3     1  UNL1       -0.3155
     21 H         146.0600  142.1622  160.2865 H       1  UNL1        0.1192
     22 H         145.3075  141.8686  161.7432 H       1  UNL1        0.1192
     23 C         142.7868  143.2048  159.7581 C.3     1  UNL1        0.2144
     24 F         142.6984  144.2427  158.6787 F       1  UNL1       -0.2324
@<TRIPOS>BOND
     1    19    18    1
     2    19    20    1
     3    19    23    1
     4    23    24    1
     5    19     1    1
     6     1     2   ar
     7     2     3   ar
     8     3     7    1
     9     7     8   ar
    10     8     9   ar
    11     9    10   ar
    12    10    13    1
    13    13    14    1
    14    14    15    1
    15    14    16    1
    16    14    17    1
    17    10    11   ar
    18    11    12   ar
    19     3     4   ar
    20     4     5   ar
    21     5     1   ar
    22    12     7   ar
    23    20    21    1
    24    20    22    1
    25     5     6    1
@<TRIPOS>MOLECULE
*****
 24 25 0 0 0
SMALL
GASTEIGER

@<TRIPOS>ATOM
      1 C         139.5265  140.2130  168.9745 C.ar    1  UNL1        0.1323
      2 N         139.8810  140.1534  167.5182 N.ar    1  UNL1       -0.2297
      3 C         138.8049  139.3847  166.8103 C.ar    1  UNL1        0.0996
      4 C         137.7854  138.9692  167.8290 C.ar    1  UNL1        0.0927
      5 N         138.2313  139.4811  169.1666 N.ar    1  UNL1       -0.3385
      6 H         137.7572  139.3583  170.0206 H       1  UNL1        0.1672
      7 C         138.7569  139.0842  165.3414 C.ar    1  UNL1        0.0194
      8 C         139.2259  137.7535  164.8324 C.ar    1  UNL1        0.0047
      9 C         139.1778  137.4531  163.3636 C.ar    1  UNL1        0.0372
     10 C         138.6607  138.4834  162.4038 C.ar    1  UNL1        0.1468
     11 C         138.1918  139.8141  162.9129 C.ar    1  UNL1        0.0372
     12 C         138.2398  140.1146  164.3817 C.ar    1  UNL1        0.0047
     13 O         138.6127  138.1830  160.9350 O.3     1  UNL1       -0.4045
     14 C         139.4563  138.9739  159.9797 C.3     1  UNL1        0.5753
     15 F         140.3000  139.7649  159.0243 F       1  UNL1       -0.1328
     16 F         140.6859  138.2893  160.4987 F       1  UNL1       -0.1328
     17 F         138.2267  139.6585  159.4606 F       1  UNL1       -0.1328
     18 C         141.1269  141.5596  171.1252 C.3     1  UNL1        0.0262
     19 C         140.3267  140.8863  170.0499 C.3     1  UNL1        0.1231
     20 N         139.9509  139.7978  171.0110 N.3     1  UNL1       -0.3155
     21 H         140.3787  139.9827  171.9183 H       1  UNL1        0.1192
     22 H         140.2821  138.9009  170.6554 H       1  UNL1        0.1192
     23 C         140.7025  141.9749  169.0887 C.3     1  UNL1        0.2144
     24 F         140.0281  143.3123  169.1693 F       1  UNL1       -0.2324
@<TRIPOS>BOND
     1    19    18    1
     2    19    20    1
     3    19    23    1
     4    23    24    1
     5    19     1    1
     6     1     2   ar
     7     2     3   ar
     8     3     7    1
     9     7     8   ar
    10     8     9   ar
    11     9    10   ar
    12    10    13    1
    13    13    14    1
    14    14    15    1
    15    14    16    1
    16    14    17    1
    17    10    11   ar
    18    11    12   ar
    19     3     4   ar
    20     4     5   ar
    21     5     1   ar
    22    12     7   ar
    23    20    21    1
    24    20    22    1
    25     5     6    1
@<TRIPOS>MOLECULE
*****
 24 25 0 0 0
SMALL
GASTEIGER

@<TRIPOS>ATOM
      1 C         143.3122  138.9225  162.2256 C.ar    1  UNL1        0.1323
      2 N         142.4815  139.4263  163.3684 N.ar    1  UNL1       -0.2297
      3 C         143.4058  139.7594  164.5019 C.ar    1  UNL1        0.0996
      4 C         144.8077  139.4614  164.0596 C.ar    1  UNL1        0.0927
      5 N         144.7500  138.9442  162.6528 N.ar    1  UNL1       -0.3385
      6 H         145.5204  138.6675  162.1059 H       1  UNL1        0.1672
      7 C         142.9993  140.2963  165.8423 C.ar    1  UNL1        0.0194
      8 C         142.9824  141.7766  166.0836 C.ar    1  UNL1        0.0047
      9 C         142.5760  142.3134  167.4240 C.ar    1  UNL1        0.0372
     10 C         142.1865  141.3698  168.5231 C.ar    1  UNL1        0.1468
     11 C         142.2035  139.8895  168.2818 C.ar    1  UNL1        0.0372
     12 C         142.6099  139.3527  166.9414 C.ar    1  UNL1        0.0047
     13 O         141.7801  141.9066  169.8635 O.3     1  UNL1       -0.4045
     14 C         141.2319  143.2980  169.9794 C.3     1  UNL1        0.5753
     15 F         140.6838  144.6895  170.0952 F       1  UNL1       -0.1328
     16 F         142.5626  143.7810  170.4753 F       1  UNL1       -0.1328
     17 F         139.9013  142.8151  169.4834 F       1  UNL1       -0.1328
     18 C         142.2796  138.0284  159.5546 C.3     1  UNL1        0.0262
     19 C         142.7959  138.4754  160.8901 C.3     1  UNL1        0.1231
     20 N         142.2168  137.2462  161.5254 N.3     1  UNL1       -0.3155
     21 H         141.7545  136.6810  160.8133 H       1  UNL1        0.1192
     22 H         141.5383  137.5186  162.2366 H       1  UNL1        0.1192
     23 C         143.3750  139.7046  160.2548 C.3     1  UNL1        0.2144
     24 F         143.9003  139.6468  158.8509 F       1  UNL1       -0.2324
@<TRIPOS>BOND
     1    19    18    1
     2    19    20    1
     3    19    23    1
     4    23    24    1
     5    19     1    1
     6     1     2   ar
     7     2     3   ar
     8     3     7    1
     9     7     8   ar
    10     8     9   ar
    11     9    10   ar
    12    10    13    1
    13    13    14    1
    14    14    15    1
    15    14    16    1
    16    14    17    1
    17    10    11   ar
    18    11    12   ar
    19     3     4   ar
    20     4     5   ar
    21     5     1   ar
    22    12     7   ar
    23    20    21    1
    24    20    22    1
    25     5     6    1
