@<TRIPOS>MOLECULE
*****
 29 32 0 0 0
SMALL
GASTEIGER

@<TRIPOS>ATOM
      1 C         140.9151  143.0208  163.6302 C.ar    1  UNL1        0.2553
      2 N         140.0497  144.2041  163.3132 N.ar    1  UNL1       -0.1957
      3 C         140.1365  144.8574  161.9657 C.ar    1  UNL1        0.1276
      4 N         139.2710  146.0408  161.6488 N.pl3   1  UNL1       -0.3427
      5 C         141.0887  144.3272  160.9351 C.ar    1  UNL1        0.0484
      6 C         141.9542  143.1438  161.2520 C.ar    1  UNL1        0.1363
      7 N         141.8674  142.4905  162.5996 N.ar    1  UNL1       -0.1951
      8 N         142.7922  142.8456  160.0442 N.am    1  UNL1       -0.2692
      9 C         142.4446  143.8448  158.9808 C.2     1  UNL1        0.2302
     10 O         143.0445  143.9157  157.6079 O.2     1  UNL1       -0.2744
     11 C         141.3918  144.7604  159.5314 C.3     1  UNL1        0.0932
     12 C         141.4786  145.4136  158.1839 C.3     1  UNL1        0.0137
     13 C         140.3572  145.8126  159.8003 C.3     1  UNL1        0.0137
     14 H         138.6460  146.3888  162.3252 H       1  UNL1        0.1437
     15 H         139.3279  146.4695  160.7644 H       1  UNL1        0.1437
     16 H         143.4541  142.1213  159.9636 H       1  UNL1        0.1563
     17 C         141.2571  141.7937  167.2966 C.ar    1  UNL1        0.0805
     18 N         141.6872  142.6816  166.1667 N.ar    1  UNL1       -0.1670
     19 N         140.8284  142.3675  164.9777 N.ar    1  UNL1       -0.1967
     20 C         139.8675  141.2855  165.3727 C.ar    1  UNL1        0.0871
     21 C         138.7855  140.5774  164.6126 C.ar    1  UNL1        0.0202
     22 C         137.9686  139.5147  165.2856 C.ar    1  UNL1        0.0129
     23 C         138.2336  139.1600  166.7188 C.ar    1  UNL1        0.0578
     24 CL        137.4165  138.0972  167.3918 Cl      1  UNL1       -0.0822
     25 C         139.3155  139.8681  167.4789 C.ar    1  UNL1        0.0141
     26 C         140.1325  140.9309  166.8059 C.ar    1  UNL1        0.0339
     27 C         141.8479  141.7723  168.6752 C.3     1  UNL1        0.0476
     28 C         140.3602  143.6902  169.6021 C.3     1  UNL1        0.0004
     29 C         141.6638  142.9481  169.5884 C.3     1  UNL1        0.0064
@<TRIPOS>BOND
     1    28    29    1
     2    29    27    1
     3    27    17    1
     4    17    18   ar
     5    18    19   ar
     6    19     1    1
     7     1     2   ar
     8     2     3   ar
     9     3     4    1
    10     3     5   ar
    11     5     6   ar
    12     6     7   ar
    13     6     8    1
    14     8     9   am
    15     9    10    2
    16     9    11    1
    17    11    12    1
    18    11    13    1
    19    19    20   ar
    20    20    21   ar
    21    21    22   ar
    22    22    23   ar
    23    23    24    1
    24    23    25   ar
    25    25    26   ar
    26    26    17   ar
    27     7     1   ar
    28    26    20   ar
    29    11     5    1
    30     4    14    1
    31     4    15    1
    32     8    16    1
@<TRIPOS>MOLECULE
*****
 29 32 0 0 0
SMALL
GASTEIGER

@<TRIPOS>ATOM
      1 C         140.0472  139.6466  160.1436 C.ar    1  UNL1        0.2553
      2 N         141.5288  139.7580  159.9387 N.ar    1  UNL1       -0.1957
      3 C         142.1785  139.0726  158.7733 C.ar    1  UNL1        0.1276
      4 N         143.6602  139.1840  158.5684 N.pl3   1  UNL1       -0.3427
      5 C         141.3464  138.2757  157.8128 C.ar    1  UNL1        0.0484
      6 C         139.8646  138.1643  158.0176 C.ar    1  UNL1        0.1363
      7 N         139.2150  138.8497  159.1830 N.ar    1  UNL1       -0.1951
      8 N         139.3066  137.3159  156.9137 N.am    1  UNL1       -0.2692
      9 C         140.4434  136.9030  156.0264 C.2     1  UNL1        0.2302
     10 O         140.3380  136.0473  154.7991 O.2     1  UNL1       -0.2744
     11 C         141.7040  137.4962  156.5821 C.3     1  UNL1        0.0932
     12 C         142.3537  136.8108  155.4167 C.3     1  UNL1        0.0137
     13 C         143.1005  137.9461  156.8942 C.3     1  UNL1        0.0137
     14 H         144.2064  139.7070  159.1988 H       1  UNL1        0.1437
     15 H         144.0866  138.7341  157.8035 H       1  UNL1        0.1437
     16 H         138.3603  137.0728  156.7926 H       1  UNL1        0.1563
     17 C         138.3347  142.0150  162.6977 C.ar    1  UNL1        0.0805
     18 N         138.9136  141.7515  161.3392 N.ar    1  UNL1       -0.1670
     19 N         139.3975  140.3320  161.3090 N.ar    1  UNL1       -0.1967
     20 C         139.1178  139.7183  162.6488 C.ar    1  UNL1        0.0871
     21 C         139.3763  138.3467  163.1982 C.ar    1  UNL1        0.0202
     22 C         138.9780  138.0153  164.6058 C.ar    1  UNL1        0.0129
     23 C         138.3211  139.0554  165.4641 C.ar    1  UNL1        0.0578
     24 CL        137.9228  138.7239  166.8717 Cl      1  UNL1       -0.0822
     25 C         138.0626  140.4270  164.9147 C.ar    1  UNL1        0.0141
     26 C         138.4609  140.7584  163.5071 C.ar    1  UNL1        0.0339
     27 C         137.7350  143.3081  163.1648 C.3     1  UNL1        0.0476
     28 C         138.5268  144.7074  165.2057 C.3     1  UNL1        0.0004
     29 C         138.6139  144.3761  163.7453 C.3     1  UNL1        0.0064
@<TRIPOS>BOND
     1    28    29    1
     2    29    27    1
     3    27    17    1
     4    17    18   ar
     5    18    19   ar
     6    19     1    1
     7     1     2   ar
     8     2     3   ar
     9     3     4    1
    10     3     5   ar
    11     5     6   ar
    12     6     7   ar
    13     6     8    1
    14     8     9   am
    15     9    10    2
    16     9    11    1
    17    11    12    1
    18    11    13    1
    19    19    20   ar
    20    20    21   ar
    21    21    22   ar
    22    22    23   ar
    23    23    24    1
    24    23    25   ar
    25    25    26   ar
    26    26    17   ar
    27     7     1   ar
    28    26    20   ar
    29    11     5    1
    30     4    14    1
    31     4    15    1
    32     8    16    1
@<TRIPOS>MOLECULE
*****
 29 32 0 0 0
SMALL
GASTEIGER

@<TRIPOS>ATOM
      1 C         139.6907  139.6508  159.8817 C.ar    1  UNL1        0.2553
      2 N         138.8428  139.5326  158.6501 N.ar    1  UNL1       -0.1957
      3 C         139.3833  138.8469  157.4304 C.ar    1  UNL1        0.1276
      4 N         138.5353  138.7286  156.1988 N.pl3   1  UNL1       -0.3427
      5 C         140.7717  138.2793  157.4424 C.ar    1  UNL1        0.0484
      6 C         141.6196  138.3975  158.6740 C.ar    1  UNL1        0.1363
      7 N         141.0792  139.0833  159.8937 N.ar    1  UNL1       -0.1951
      8 N         142.9408  137.7459  158.3915 N.am    1  UNL1       -0.2692
      9 C         142.9094  137.2249  156.9852 C.2     1  UNL1        0.2302
     10 O         144.0231  136.5014  156.2881 O.2     1  UNL1       -0.2744
     11 C         141.5688  137.5546  156.3987 C.3     1  UNL1        0.0932
     12 C         142.1093  136.8689  155.1790 C.3     1  UNL1        0.0137
     13 C         140.3412  137.7409  155.5571 C.3     1  UNL1        0.0137
     14 H         137.6241  139.1011  156.1909 H       1  UNL1        0.1437
     15 H         138.8901  138.2786  155.3982 H       1  UNL1        0.1437
     16 H         143.6960  137.6729  159.0189 H       1  UNL1        0.1563
     17 C         138.2408  142.0268  162.5869 C.ar    1  UNL1        0.0805
     18 N         138.7067  141.7671  161.1849 N.ar    1  UNL1       -0.1670
     19 N         139.1502  140.3366  161.1014 N.ar    1  UNL1       -0.1967
     20 C         138.9583  139.7122  162.4517 C.ar    1  UNL1        0.0871
     21 C         139.2228  138.3274  162.9639 C.ar    1  UNL1        0.0202
     22 C         138.9252  137.9872  164.3942 C.ar    1  UNL1        0.0129
     23 C         138.3632  139.0318  165.3123 C.ar    1  UNL1        0.0578
     24 CL        138.0656  138.6916  166.7426 Cl      1  UNL1       -0.0822
     25 C         138.0987  140.4166  164.8001 C.ar    1  UNL1        0.0141
     26 C         138.3963  140.7568  163.3698 C.ar    1  UNL1        0.0339
     27 C         137.7121  143.3280  163.1135 C.3     1  UNL1        0.0476
     28 C         138.5081  144.6970  165.1732 C.3     1  UNL1        0.0004
     29 C         138.6498  144.3253  163.7269 C.3     1  UNL1        0.0064
@<TRIPOS>BOND
     1    28    29    1
     2    29    27    1
     3    27    17    1
     4    17    18   ar
     5    18    19   ar
     6    19     1    1
     7     1     2   ar
     8     2     3   ar
     9     3     4    1
    10     3     5   ar
    11     5     6   ar
    12     6     7   ar
    13     6     8    1
    14     8     9   am
    15     9    10    2
    16     9    11    1
    17    11    12    1
    18    11    13    1
    19    19    20   ar
    20    20    21   ar
    21    21    22   ar
    22    22    23   ar
    23    23    24    1
    24    23    25   ar
    25    25    26   ar
    26    26    17   ar
    27     7     1   ar
    28    26    20   ar
    29    11     5    1
    30     4    14    1
    31     4    15    1
    32     8    16    1
@<TRIPOS>MOLECULE
*****
 29 32 0 0 0
SMALL
GASTEIGER

@<TRIPOS>ATOM
      1 C         141.2541  142.8611  163.0063 C.ar    1  UNL1        0.2553
      2 N         142.4144  142.3232  162.2226 N.ar    1  UNL1       -0.1957
      3 C         142.6618  142.8038  160.8234 C.ar    1  UNL1        0.1276
      4 N         143.8222  142.2658  160.0398 N.pl3   1  UNL1       -0.3427
      5 C         141.7488  143.8224  160.2079 C.ar    1  UNL1        0.0484
      6 C         140.5885  144.3604  160.9915 C.ar    1  UNL1        0.1363
      7 N         140.3411  143.8798  162.3907 N.ar    1  UNL1       -0.1951
      8 N         139.8644  145.3499  160.1274 N.am    1  UNL1       -0.2692
      9 C         140.5773  145.4234  158.8097 C.2     1  UNL1        0.2302
     10 O         140.1930  146.2890  157.6466 O.2     1  UNL1       -0.2744
     11 C         141.7419  144.4794  158.8595 C.3     1  UNL1        0.0932
     12 C         141.9894  144.9601  157.4602 C.3     1  UNL1        0.0137
     13 C         142.9583  143.6359  158.6167 C.3     1  UNL1        0.0137
     14 H         144.4214  141.5973  160.4438 H       1  UNL1        0.1437
     15 H         143.9845  142.5813  159.1214 H       1  UNL1        0.1437
     16 H         139.0622  145.8612  160.3807 H       1  UNL1        0.1563
     17 C         141.1048  142.1553  166.8201 C.ar    1  UNL1        0.0805
     18 N         141.6362  142.9305  165.6510 N.ar    1  UNL1       -0.1670
     19 N         141.0067  142.3804  164.4055 N.ar    1  UNL1       -0.1967
     20 C         140.0862  141.2654  164.8049 C.ar    1  UNL1        0.0871
     21 C         139.2007  140.3588  164.0025 C.ar    1  UNL1        0.0202
     22 C         138.3759  139.3131  164.6924 C.ar    1  UNL1        0.0129
     23 C         138.4365  139.1739  166.1847 C.ar    1  UNL1        0.0578
     24 CL        137.6116  138.1281  166.8746 Cl      1  UNL1       -0.0822
     25 C         139.3221  140.0805  166.9871 C.ar    1  UNL1        0.0141
     26 C         140.1469  141.1263  166.2972 C.ar    1  UNL1        0.0339
     27 C         141.4677  142.3713  168.2594 C.3     1  UNL1        0.0476
     28 C         140.4639  144.0756  169.9441 C.3     1  UNL1        0.0004
     29 C         140.4073  142.7459  169.2522 C.3     1  UNL1        0.0064
@<TRIPOS>BOND
     1    28    29    1
     2    29    27    1
     3    27    17    1
     4    17    18   ar
     5    18    19   ar
     6    19     1    1
     7     1     2   ar
     8     2     3   ar
     9     3     4    1
    10     3     5   ar
    11     5     6   ar
    12     6     7   ar
    13     6     8    1
    14     8     9   am
    15     9    10    2
    16     9    11    1
    17    11    12    1
    18    11    13    1
    19    19    20   ar
    20    20    21   ar
    21    21    22   ar
    22    22    23   ar
    23    23    24    1
    24    23    25   ar
    25    25    26   ar
    26    26    17   ar
    27     7     1   ar
    28    26    20   ar
    29    11     5    1
    30     4    14    1
    31     4    15    1
    32     8    16    1
@<TRIPOS>MOLECULE
*****
 29 32 0 0 0
SMALL
GASTEIGER

@<TRIPOS>ATOM
      1 C         140.8415  145.1716  159.7560 C.ar    1  UNL1        0.2553
      2 N         141.9170  144.4562  158.9936 N.ar    1  UNL1       -0.1957
      3 C         142.0808  144.6978  157.5222 C.ar    1  UNL1        0.1276
      4 N         143.1564  143.9824  156.7598 N.pl3   1  UNL1       -0.3427
      5 C         141.1689  145.6548  156.8133 C.ar    1  UNL1        0.0484
      6 C         140.0933  146.3702  157.5757 C.ar    1  UNL1        0.1363
      7 N         139.9296  146.1286  159.0471 N.ar    1  UNL1       -0.1951
      8 N         139.3501  147.2495  156.6142 N.am    1  UNL1       -0.2692
      9 C         139.9664  147.0775  155.2575 C.2     1  UNL1        0.2302
     10 O         139.5344  147.7695  153.9988 O.2     1  UNL1       -0.2744
     11 C         141.0904  146.0919  155.3806 C.3     1  UNL1        0.0932
     12 C         141.2542  146.3335  153.9093 C.3     1  UNL1        0.0137
     13 C         142.2487  145.1569  155.1961 C.3     1  UNL1        0.0137
     14 H         143.7549  143.3543  157.2251 H       1  UNL1        0.1437
     15 H         143.2638  144.1410  155.7942 H       1  UNL1        0.1437
     16 H         138.5911  147.8364  156.8348 H       1  UNL1        0.1563
     17 C         139.7010  144.7437  163.4413 C.ar    1  UNL1        0.0805
     18 N         139.4086  145.0882  162.0110 N.ar    1  UNL1       -0.1670
     19 N         140.6778  144.9300  161.2274 N.ar    1  UNL1       -0.1967
     20 C         141.7546  144.4877  162.1734 C.ar    1  UNL1        0.0871
     21 C         143.2068  144.1749  161.9656 C.ar    1  UNL1        0.0202
     22 C         144.0553  143.7470  163.1262 C.ar    1  UNL1        0.0129
     23 C         143.4515  143.6319  164.4945 C.ar    1  UNL1        0.0578
     24 CL        144.3001  143.2040  165.6551 Cl      1  UNL1       -0.0822
     25 C         141.9993  143.9447  164.7022 C.ar    1  UNL1        0.0141
     26 C         141.1509  144.3726  163.5417 C.ar    1  UNL1        0.0339
     27 C         138.7163  144.7664  164.5727 C.3     1  UNL1        0.0476
     28 C         137.7825  142.4427  163.8808 C.3     1  UNL1        0.0004
     29 C         137.6451  143.7196  164.6557 C.3     1  UNL1        0.0064
@<TRIPOS>BOND
     1    28    29    1
     2    29    27    1
     3    27    17    1
     4    17    18   ar
     5    18    19   ar
     6    19     1    1
     7     1     2   ar
     8     2     3   ar
     9     3     4    1
    10     3     5   ar
    11     5     6   ar
    12     6     7   ar
    13     6     8    1
    14     8     9   am
    15     9    10    2
    16     9    11    1
    17    11    12    1
    18    11    13    1
    19    19    20   ar
    20    20    21   ar
    21    21    22   ar
    22    22    23   ar
    23    23    24    1
    24    23    25   ar
    25    25    26   ar
    26    26    17   ar
    27     7     1   ar
    28    26    20   ar
    29    11     5    1
    30     4    14    1
    31     4    15    1
    32     8    16    1
@<TRIPOS>MOLECULE
*****
 29 32 0 0 0
SMALL
GASTEIGER

@<TRIPOS>ATOM
      1 C         141.0448  145.0647  159.5995 C.ar    1  UNL1        0.2553
      2 N         140.1590  146.0102  158.8439 N.ar    1  UNL1       -0.1957
      3 C         140.3452  146.1942  157.3669 C.ar    1  UNL1        0.1276
      4 N         139.4593  147.1398  156.6113 N.pl3   1  UNL1       -0.3427
      5 C         141.4172  145.4324  156.6455 C.ar    1  UNL1        0.0484
      6 C         142.3031  144.4868  157.4011 C.ar    1  UNL1        0.1363
      7 N         142.1170  144.3029  158.8781 N.ar    1  UNL1       -0.1951
      8 N         143.2678  143.8773  156.4275 N.am    1  UNL1       -0.2692
      9 C         142.9781  144.4463  155.0701 C.2     1  UNL1        0.2302
     10 O         143.7045  144.1126  153.8010 O.2     1  UNL1       -0.2744
     11 C         141.8344  145.4073  155.2049 C.3     1  UNL1        0.0932
     12 C         142.0205  145.5913  153.7279 C.3     1  UNL1        0.0137
     13 C         140.7296  146.4069  155.0309 C.3     1  UNL1        0.0137
     14 H         138.7556  147.6397  157.0848 H       1  UNL1        0.1437
     15 H         139.5815  147.2605  155.6419 H       1  UNL1        0.1437
     16 H         143.9681  143.2194  156.6417 H       1  UNL1        0.1563
     17 C         139.8505  144.7901  163.2823 C.ar    1  UNL1        0.0805
     18 N         139.5813  145.0839  161.8362 N.ar    1  UNL1       -0.1670
     19 N         140.8587  144.8808  161.0765 N.ar    1  UNL1       -0.1967
     20 C         141.9172  144.4615  162.0531 C.ar    1  UNL1        0.0871
     21 C         143.3680  144.1234  161.8771 C.ar    1  UNL1        0.0202
     22 C         144.1956  143.7294  163.0644 C.ar    1  UNL1        0.0129
     23 C         143.5725  143.6733  164.4277 C.ar    1  UNL1        0.0578
     24 CL        144.4002  143.2792  165.6150 Cl      1  UNL1       -0.0822
     25 C         142.1217  144.0113  164.6037 C.ar    1  UNL1        0.0141
     26 C         141.2941  144.4054  163.4164 C.ar    1  UNL1        0.0339
     27 C         138.8513  144.8674  164.3985 C.3     1  UNL1        0.0476
     28 C         138.1333  142.3716  164.4752 C.3     1  UNL1        0.0004
     29 C         137.7762  143.8279  164.5161 C.3     1  UNL1        0.0064
@<TRIPOS>BOND
     1    28    29    1
     2    29    27    1
     3    27    17    1
     4    17    18   ar
     5    18    19   ar
     6    19     1    1
     7     1     2   ar
     8     2     3   ar
     9     3     4    1
    10     3     5   ar
    11     5     6   ar
    12     6     7   ar
    13     6     8    1
    14     8     9   am
    15     9    10    2
    16     9    11    1
    17    11    12    1
    18    11    13    1
    19    19    20   ar
    20    20    21   ar
    21    21    22   ar
    22    22    23   ar
    23    23    24    1
    24    23    25   ar
    25    25    26   ar
    26    26    17   ar
    27     7     1   ar
    28    26    20   ar
    29    11     5    1
    30     4    14    1
    31     4    15    1
    32     8    16    1
@<TRIPOS>MOLECULE
*****
 29 32 0 0 0
SMALL
GASTEIGER

@<TRIPOS>ATOM
      1 C         140.3294  140.2278  165.6821 C.ar    1  UNL1        0.2553
      2 N         139.4544  139.7690  166.8107 N.ar    1  UNL1       -0.1957
      3 C         139.7641  140.1869  168.2176 C.ar    1  UNL1        0.1276
      4 N         138.8890  139.7281  169.3462 N.pl3   1  UNL1       -0.3427
      5 C         140.9489  141.0637  168.4960 C.ar    1  UNL1        0.0484
      6 C         141.8240  141.5225  167.3674 C.ar    1  UNL1        0.1363
      7 N         141.5143  141.1046  165.9605 N.ar    1  UNL1       -0.1951
      8 N         142.9151  142.3752  167.9440 N.am    1  UNL1       -0.2692
      9 C         142.7143  142.4433  169.4289 C.2     1  UNL1        0.2302
     10 O         143.5773  143.1908  170.4018 O.2     1  UNL1       -0.2744
     11 C         141.4992  141.6328  169.7700 C.3     1  UNL1        0.0932
     12 C         141.8090  142.0507  171.1769 C.3     1  UNL1        0.0137
     13 C         140.3488  140.9096  170.4053 C.3     1  UNL1        0.0137
     14 H         138.1114  139.1527  169.1635 H       1  UNL1        0.1437
     15 H         139.0923  140.0024  170.2696 H       1  UNL1        0.1437
     16 H         143.6363  142.8132  167.4368 H       1  UNL1        0.1563
     17 C         138.8391  139.4122  162.1923 C.ar    1  UNL1        0.0805
     18 N         138.6985  139.9613  163.5811 N.ar    1  UNL1       -0.1670
     19 N         140.0196  139.8099  164.2752 N.ar    1  UNL1       -0.1967
     20 C         140.9766  139.1672  163.3154 C.ar    1  UNL1        0.0871
     21 C         142.4181  138.7741  163.4474 C.ar    1  UNL1        0.0202
     22 C         143.1300  138.1352  162.2920 C.ar    1  UNL1        0.0129
     23 C         142.4004  137.8894  161.0047 C.ar    1  UNL1        0.0578
     24 CL        143.1123  137.2504  159.8492 Cl      1  UNL1       -0.0822
     25 C         140.9589  138.2825  160.8727 C.ar    1  UNL1        0.0141
     26 C         140.2470  138.9214  162.0281 C.ar    1  UNL1        0.0339
     27 C         137.7610  139.3625  161.1506 C.3     1  UNL1        0.0476
     28 C         138.5067  140.0005  158.7449 C.3     1  UNL1        0.0004
     29 C         137.7745  140.3369  160.0101 C.3     1  UNL1        0.0064
@<TRIPOS>BOND
     1    28    29    1
     2    29    27    1
     3    27    17    1
     4    17    18   ar
     5    18    19   ar
     6    19     1    1
     7     1     2   ar
     8     2     3   ar
     9     3     4    1
    10     3     5   ar
    11     5     6   ar
    12     6     7   ar
    13     6     8    1
    14     8     9   am
    15     9    10    2
    16     9    11    1
    17    11    12    1
    18    11    13    1
    19    19    20   ar
    20    20    21   ar
    21    21    22   ar
    22    22    23   ar
    23    23    24    1
    24    23    25   ar
    25    25    26   ar
    26    26    17   ar
    27     7     1   ar
    28    26    20   ar
    29    11     5    1
    30     4    14    1
    31     4    15    1
    32     8    16    1
@<TRIPOS>MOLECULE
*****
 29 32 0 0 0
SMALL
GASTEIGER

@<TRIPOS>ATOM
      1 C         140.5848  142.3409  163.1011 C.ar    1  UNL1        0.2553
      2 N         141.3565  143.5226  162.5936 N.ar    1  UNL1       -0.1957
      3 C         141.1221  144.0299  161.2016 C.ar    1  UNL1        0.1276
      4 N         141.8939  145.2118  160.6941 N.pl3   1  UNL1       -0.3427
      5 C         140.1159  143.3554  160.3170 C.ar    1  UNL1        0.0484
      6 C         139.3441  142.1735  160.8245 C.ar    1  UNL1        0.1363
      7 N         139.5785  141.6662  162.2165 N.ar    1  UNL1       -0.1951
      8 N         138.4244  141.7165  159.7313 N.am    1  UNL1       -0.2692
      9 C         138.6278  142.6158  158.5481 C.2     1  UNL1        0.2302
     10 O         137.9115  142.5192  157.2338 O.2     1  UNL1       -0.2744
     11 C         139.6732  143.6287  158.9102 C.3     1  UNL1        0.0932
     12 C         139.4388  144.1360  157.5181 C.3     1  UNL1        0.0137
     13 C         140.6696  144.7476  158.9812 C.3     1  UNL1        0.0137
     14 H         142.5544  145.6545  161.2747 H       1  UNL1        0.1437
     15 H         141.7401  145.5447  159.7805 H       1  UNL1        0.1437
     16 H         137.7973  140.9591  159.7814 H       1  UNL1        0.1563
     17 C         140.6906  141.5554  166.9007 C.ar    1  UNL1        0.0805
     18 N         140.1651  142.3485  165.7410 N.ar    1  UNL1       -0.1670
     19 N         140.8192  141.8336  164.4931 N.ar    1  UNL1       -0.1967
     20 C         141.7488  140.7223  164.8816 C.ar    1  UNL1        0.0871
     21 C         142.6574  139.8448  164.0728 C.ar    1  UNL1        0.0202
     22 C         143.4865  138.7954  164.7519 C.ar    1  UNL1        0.0129
     23 C         143.4070  138.6235  166.2399 C.ar    1  UNL1        0.0578
     24 CL        144.2362  137.5740  166.9190 Cl      1  UNL1       -0.0822
     25 C         142.4984  139.5010  167.0487 C.ar    1  UNL1        0.0141
     26 C         141.6693  140.5504  166.3696 C.ar    1  UNL1        0.0339
     27 C         140.3049  141.7357  168.3390 C.3     1  UNL1        0.0476
     28 C         141.6822  143.2131  169.9733 C.3     1  UNL1        0.0004
     29 C         140.5366  143.0530  169.0182 C.3     1  UNL1        0.0064
@<TRIPOS>BOND
     1    28    29    1
     2    29    27    1
     3    27    17    1
     4    17    18   ar
     5    18    19   ar
     6    19     1    1
     7     1     2   ar
     8     2     3   ar
     9     3     4    1
    10     3     5   ar
    11     5     6   ar
    12     6     7   ar
    13     6     8    1
    14     8     9   am
    15     9    10    2
    16     9    11    1
    17    11    12    1
    18    11    13    1
    19    19    20   ar
    20    20    21   ar
    21    21    22   ar
    22    22    23   ar
    23    23    24    1
    24    23    25   ar
    25    25    26   ar
    26    26    17   ar
    27     7     1   ar
    28    26    20   ar
    29    11     5    1
    30     4    14    1
    31     4    15    1
    32     8    16    1
@<TRIPOS>MOLECULE
*****
 29 32 0 0 0
SMALL
GASTEIGER

@<TRIPOS>ATOM
      1 C         140.9318  142.3334  162.6696 C.ar    1  UNL1        0.2553
      2 N         142.1878  141.9087  161.9683 N.ar    1  UNL1       -0.1957
      3 C         142.5698  142.5433  160.6639 C.ar    1  UNL1        0.1276
      4 N         143.8259  142.1186  159.9626 N.pl3   1  UNL1       -0.3427
      5 C         141.6956  143.6026  160.0608 C.ar    1  UNL1        0.0484
      6 C         140.4396  144.0273  160.7621 C.ar    1  UNL1        0.1363
      7 N         140.0576  143.3927  162.0665 N.ar    1  UNL1       -0.1951
      8 N         139.7811  145.0887  159.9314 N.am    1  UNL1       -0.2692
      9 C         140.6303  145.3199  158.7167 C.2     1  UNL1        0.2302
     10 O         140.3461  146.2979  157.6156 O.2     1  UNL1       -0.2744
     11 C         141.8135  144.4015  158.7967 C.3     1  UNL1        0.0932
     12 C         142.1954  145.0360  157.4923 C.3     1  UNL1        0.0137
     13 C         143.0766  143.6157  158.6040 C.3     1  UNL1        0.0137
     14 H         144.3996  141.4233  160.3584 H       1  UNL1        0.1437
     15 H         144.0765  142.5351  159.1064 H       1  UNL1        0.1437
     16 H         138.9394  145.5521  160.1459 H       1  UNL1        0.1563
     17 C         139.3293  140.4657  165.6711 C.ar    1  UNL1        0.0805
     18 N         139.3014  140.9106  164.2389 N.ar    1  UNL1       -0.1670
     19 N         140.5499  141.6988  163.9740 N.ar    1  UNL1       -0.1967
     20 C         141.3494  141.7410  165.2425 C.ar    1  UNL1        0.0871
     21 C         142.6668  142.3749  165.5779 C.ar    1  UNL1        0.0202
     22 C         143.2298  142.2467  166.9623 C.ar    1  UNL1        0.0129
     23 C         142.4755  141.4846  168.0112 C.ar    1  UNL1        0.0578
     24 CL        143.0386  141.3564  169.3956 Cl      1  UNL1       -0.0822
     25 C         141.1581  140.8507  167.6757 C.ar    1  UNL1        0.0141
     26 C         140.5950  140.9789  166.2913 C.ar    1  UNL1        0.0339
     27 C         138.2764  139.6507  166.3618 C.3     1  UNL1        0.0476
     28 C         138.9704  137.5245  165.0397 C.3     1  UNL1        0.0004
     29 C         138.2491  138.1606  166.1908 C.3     1  UNL1        0.0064
@<TRIPOS>BOND
     1    28    29    1
     2    29    27    1
     3    27    17    1
     4    17    18   ar
     5    18    19   ar
     6    19     1    1
     7     1     2   ar
     8     2     3   ar
     9     3     4    1
    10     3     5   ar
    11     5     6   ar
    12     6     7   ar
    13     6     8    1
    14     8     9   am
    15     9    10    2
    16     9    11    1
    17    11    12    1
    18    11    13    1
    19    19    20   ar
    20    20    21   ar
    21    21    22   ar
    22    22    23   ar
    23    23    24    1
    24    23    25   ar
    25    25    26   ar
    26    26    17   ar
    27     7     1   ar
    28    26    20   ar
    29    11     5    1
    30     4    14    1
    31     4    15    1
    32     8    16    1
