@<TRIPOS>MOLECULE
*****
 19 20 0 0 0
SMALL
GASTEIGER

@<TRIPOS>ATOM
      1 C         140.3967  141.9712  167.2935 C.ar    1  UNL1        0.0511
      2 C         139.7906  140.6289  167.0095 C.ar    1  UNL1        0.0163
      3 C         139.1762  139.8328  168.1225 C.ar    1  UNL1        0.0253
      4 C         139.1679  140.3790  169.5194 C.ar    1  UNL1        0.1365
      5 C         139.7740  141.7213  169.8034 C.ar    1  UNL1        0.1541
      6 O         139.7657  142.2676  171.2005 O.3     1  UNL1       -0.5039
      7 C         140.3884  142.5174  168.6905 C.ar    1  UNL1        0.0527
      8 H         139.3819  141.7703  171.8957 H       1  UNL1        0.2923
      9 C         140.1624  143.7002  165.3685 C.3     1  UNL1        0.1122
     10 N         141.0111  142.7674  166.1806 N.pl3   1  UNL1       -0.3040
     11 C         142.4743  142.6307  165.8797 C.3     1  UNL1        0.1122
     12 N         138.5534  139.5829  170.6324 N.2     1  UNL1       -0.1435
     13 N         137.1597  139.0468  170.4904 N.2     1  UNL1       -0.1284
     14 C         136.5453  138.2507  171.6033 C.ar    1  UNL1        0.1838
     15 C         135.1470  138.5501  172.0563 C.ar    1  UNL1        0.0406
     16 C         134.5326  137.7540  173.1693 C.ar    1  UNL1        0.0048
     17 C         135.3165  136.6584  173.8292 C.ar    1  UNL1        0.0208
     18 C         136.7147  136.3591  173.3762 C.ar    1  UNL1        0.1006
     19 N         137.3291  137.1552  172.2632 N.ar    1  UNL1       -0.2236
@<TRIPOS>BOND
     1     9    10    1
     2    10    11    1
     3    10     1    1
     4     1     2   ar
     5     2     3   ar
     6     3     4   ar
     7     4    12    1
     8    12    13    2
     9    13    14    1
    10    14    15   ar
    11    15    16   ar
    12    16    17   ar
    13    17    18   ar
    14    18    19   ar
    15     4     5   ar
    16     5     6    1
    17     5     7   ar
    18     7     1   ar
    19    19    14   ar
    20     6     8    1
@<TRIPOS>MOLECULE
*****
 19 20 0 0 0
SMALL
GASTEIGER

@<TRIPOS>ATOM
      1 C         139.0802  139.8360  160.5574 C.ar    1  UNL1        0.0511
      2 C         140.2478  139.5203  161.4444 C.ar    1  UNL1        0.0163
      3 C         140.1764  139.8181  162.9128 C.ar    1  UNL1        0.0253
      4 C         138.9373  140.4318  163.4942 C.ar    1  UNL1        0.1365
      5 C         137.7696  140.7475  162.6071 C.ar    1  UNL1        0.1541
      6 O         136.5304  141.3612  163.1885 O.3     1  UNL1       -0.5039
      7 C         137.8411  140.4497  161.1387 C.ar    1  UNL1        0.0527
      8 H         136.4858  141.5473  164.1057 H       1  UNL1        0.2923
      9 C         139.9919  138.3980  158.5950 C.3     1  UNL1        0.1122
     10 N         139.1517  139.5381  159.0890 N.pl3   1  UNL1       -0.3040
     11 C         138.3829  140.3804  158.1146 C.3     1  UNL1        0.1122
     12 N         138.8658  140.7297  164.9625 N.2     1  UNL1       -0.1435
     13 N         140.1226  141.0018  165.7347 N.2     1  UNL1       -0.1284
     14 C         140.0512  141.2996  167.2031 C.ar    1  UNL1        0.1838
     15 C         140.5323  142.6213  167.7245 C.ar    1  UNL1        0.0406
     16 C         140.4608  142.9192  169.1929 C.ar    1  UNL1        0.0048
     17 C         139.9082  141.8954  170.1398 C.ar    1  UNL1        0.0208
     18 C         139.4271  140.5738  169.6184 C.ar    1  UNL1        0.1006
     19 N         139.4986  140.2760  168.1500 N.ar    1  UNL1       -0.2236
@<TRIPOS>BOND
     1     9    10    1
     2    10    11    1
     3    10     1    1
     4     1     2   ar
     5     2     3   ar
     6     3     4   ar
     7     4    12    1
     8    12    13    2
     9    13    14    1
    10    14    15   ar
    11    15    16   ar
    12    16    17   ar
    13    17    18   ar
    14    18    19   ar
    15     4     5   ar
    16     5     6    1
    17     5     7   ar
    18     7     1   ar
    19    19    14   ar
    20     6     8    1
@<TRIPOS>MOLECULE
*****
 19 20 0 0 0
SMALL
GASTEIGER

@<TRIPOS>ATOM
      1 C         143.5928  142.7212  160.5192 C.ar    1  UNL1        0.0511
      2 C         142.3484  142.6093  161.3492 C.ar    1  UNL1        0.0163
      3 C         142.4451  142.2400  162.7998 C.ar    1  UNL1        0.0253
      4 C         143.7862  141.9826  163.4205 C.ar    1  UNL1        0.1365
      5 C         145.0306  142.0945  162.5905 C.ar    1  UNL1        0.1541
      6 O         146.3717  141.8372  163.2111 O.3     1  UNL1       -0.5039
      7 C         144.9339  142.4638  161.1399 C.ar    1  UNL1        0.0527
      8 H         146.4322  141.6065  164.1172 H       1  UNL1        0.2923
      9 C         142.4021  144.0026  158.5982 C.3     1  UNL1        0.1122
     10 N         143.4961  143.0905  159.0686 N.pl3   1  UNL1       -0.3040
     11 C         144.4933  142.5477  158.0884 C.3     1  UNL1        0.1122
     12 N         143.8829  141.6133  164.8711 N.2     1  UNL1       -0.1435
     13 N         142.6625  141.6664  165.7415 N.2     1  UNL1       -0.1284
     14 C         142.7592  141.2971  167.1921 C.ar    1  UNL1        0.1838
     15 C         143.2243  142.3112  168.1948 C.ar    1  UNL1        0.0406
     16 C         143.3210  141.9419  169.6454 C.ar    1  UNL1        0.0048
     17 C         142.9526  140.5585  170.0933 C.ar    1  UNL1        0.0208
     18 C         142.4874  139.5445  169.0906 C.ar    1  UNL1        0.1006
     19 N         142.3907  139.9138  167.6400 N.ar    1  UNL1       -0.2236
@<TRIPOS>BOND
     1     9    10    1
     2    10    11    1
     3    10     1    1
     4     1     2   ar
     5     2     3   ar
     6     3     4   ar
     7     4    12    1
     8    12    13    2
     9    13    14    1
    10    14    15   ar
    11    15    16   ar
    12    16    17   ar
    13    17    18   ar
    14    18    19   ar
    15     4     5   ar
    16     5     6    1
    17     5     7   ar
    18     7     1   ar
    19    19    14   ar
    20     6     8    1
@<TRIPOS>MOLECULE
*****
 19 20 0 0 0
SMALL
GASTEIGER

@<TRIPOS>ATOM
      1 C         141.0067  143.9123  163.5742 C.ar    1  UNL1        0.0511
      2 C         142.0269  143.3909  162.6060 C.ar    1  UNL1        0.0163
      3 C         142.0903  143.9439  161.2131 C.ar    1  UNL1        0.0253
      4 C         141.1337  145.0184  160.7884 C.ar    1  UNL1        0.1365
      5 C         140.1136  145.5398  161.7566 C.ar    1  UNL1        0.1541
      6 O         139.1569  146.6143  161.3320 O.3     1  UNL1       -0.5039
      7 C         140.0501  144.9867  163.1495 C.ar    1  UNL1        0.0527
      8 H         139.1966  146.9598  160.4619 H       1  UNL1        0.2923
      9 C         139.6930  143.5174  165.7806 C.3     1  UNL1        0.1122
     10 N         140.9433  143.3593  164.9671 N.pl3   1  UNL1       -0.3040
     11 C         142.1300  142.6480  165.5465 C.3     1  UNL1        0.1122
     12 N         141.1972  145.5714  159.3955 N.2     1  UNL1       -0.1435
     13 N         139.9432  145.7038  158.5833 N.2     1  UNL1       -0.1284
     14 C         140.0067  146.2568  157.1904 C.ar    1  UNL1        0.1838
     15 C         140.9692  145.6773  156.1965 C.ar    1  UNL1        0.0406
     16 C         141.0326  146.2303  154.8036 C.ar    1  UNL1        0.0048
     17 C         140.1337  147.3629  154.4046 C.ar    1  UNL1        0.0208
     18 C         139.1713  147.9424  155.3985 C.ar    1  UNL1        0.1006
     19 N         139.1078  147.3894  156.7914 N.ar    1  UNL1       -0.2236
@<TRIPOS>BOND
     1     9    10    1
     2    10    11    1
     3    10     1    1
     4     1     2   ar
     5     2     3   ar
     6     3     4   ar
     7     4    12    1
     8    12    13    2
     9    13    14    1
    10    14    15   ar
    11    15    16   ar
    12    16    17   ar
    13    17    18   ar
    14    18    19   ar
    15     4     5   ar
    16     5     6    1
    17     5     7   ar
    18     7     1   ar
    19    19    14   ar
    20     6     8    1
@<TRIPOS>MOLECULE
*****
 19 20 0 0 0
SMALL
GASTEIGER

@<TRIPOS>ATOM
      1 C         138.6034  139.2343  164.1711 C.ar    1  UNL1        0.0511
      2 C         138.5779  138.0562  163.2430 C.ar    1  UNL1        0.0163
      3 C         138.1736  138.2388  161.8101 C.ar    1  UNL1        0.0253
      4 C         137.7948  139.5995  161.3053 C.ar    1  UNL1        0.1365
      5 C         137.8203  140.7776  162.2334 C.ar    1  UNL1        0.1541
      6 O         137.4415  142.1385  161.7285 O.3     1  UNL1       -0.5039
      7 C         138.2246  140.5950  163.6663 C.ar    1  UNL1        0.0527
      8 H         137.1890  142.2526  160.8335 H       1  UNL1        0.2923
      9 C         140.4317  139.2797  166.0164 C.3     1  UNL1        0.1122
     10 N         139.0077  139.0517  165.6040 N.pl3   1  UNL1       -0.3040
     11 C         137.9880  138.6410  166.6245 C.3     1  UNL1        0.1122
     12 N         137.3905  139.7822  159.8724 N.2     1  UNL1       -0.1435
     13 N         138.1080  140.7796  159.0119 N.2     1  UNL1       -0.1284
     14 C         137.7037  140.9622  157.5790 C.ar    1  UNL1        0.1838
     15 C         138.6581  141.5858  156.6041 C.ar    1  UNL1        0.0406
     16 C         138.2538  141.7685  155.1712 C.ar    1  UNL1        0.0048
     17 C         136.8952  141.3274  154.7132 C.ar    1  UNL1        0.0208
     18 C         135.9409  140.7038  155.6881 C.ar    1  UNL1        0.1006
     19 N         136.3452  140.5212  157.1210 N.ar    1  UNL1       -0.2236
@<TRIPOS>BOND
     1     9    10    1
     2    10    11    1
     3    10     1    1
     4     1     2   ar
     5     2     3   ar
     6     3     4   ar
     7     4    12    1
     8    12    13    2
     9    13    14    1
    10    14    15   ar
    11    15    16   ar
    12    16    17   ar
    13    17    18   ar
    14    18    19   ar
    15     4     5   ar
    16     5     6    1
    17     5     7   ar
    18     7     1   ar
    19    19    14   ar
    20     6     8    1
@<TRIPOS>MOLECULE
*****
 19 20 0 0 0
SMALL
GASTEIGER

@<TRIPOS>ATOM
      1 C         141.0858  137.9383  162.0570 C.ar    1  UNL1        0.0511
      2 C         140.3522  138.2609  160.7891 C.ar    1  UNL1        0.0163
      3 C         141.1173  138.6350  159.5543 C.ar    1  UNL1        0.0253
      4 C         142.6160  138.6864  159.5875 C.ar    1  UNL1        0.1365
      5 C         143.3497  138.3638  160.8554 C.ar    1  UNL1        0.1541
      6 O         144.8485  138.4152  160.8886 O.3     1  UNL1       -0.5039
      7 C         142.5845  137.9897  162.0902 C.ar    1  UNL1        0.0527
      8 H         145.3264  138.6488  160.1173 H       1  UNL1        0.2923
      9 C         138.8230  137.6470  163.3000 C.3     1  UNL1        0.1122
     10 N         140.3207  137.5642  163.2918 N.pl3   1  UNL1       -0.3040
     11 C         141.0532  137.1073  164.5184 C.3     1  UNL1        0.1122
     12 N         143.3812  139.0604  158.3527 N.2     1  UNL1       -0.1435
     13 N         144.2248  140.3006  158.3400 N.2     1  UNL1       -0.1284
     14 C         144.9899  140.6747  157.1053 C.ar    1  UNL1        0.1838
     15 C         145.7396  141.9729  157.0520 C.ar    1  UNL1        0.0406
     16 C         146.5047  142.3469  155.8172 C.ar    1  UNL1        0.0048
     17 C         146.5201  141.4228  154.6357 C.ar    1  UNL1        0.0208
     18 C         145.7704  140.1248  154.6890 C.ar    1  UNL1        0.1006
     19 N         145.0053  139.7507  155.9238 N.ar    1  UNL1       -0.2236
@<TRIPOS>BOND
     1     9    10    1
     2    10    11    1
     3    10     1    1
     4     1     2   ar
     5     2     3   ar
     6     3     4   ar
     7     4    12    1
     8    12    13    2
     9    13    14    1
    10    14    15   ar
    11    15    16   ar
    12    16    17   ar
    13    17    18   ar
    14    18    19   ar
    15     4     5   ar
    16     5     6    1
    17     5     7   ar
    18     7     1   ar
    19    19    14   ar
    20     6     8    1
@<TRIPOS>MOLECULE
*****
 19 20 0 0 0
SMALL
GASTEIGER

@<TRIPOS>ATOM
      1 C         139.1958  143.0591  160.4840 C.ar    1  UNL1        0.0511
      2 C         140.3007  143.5547  161.3693 C.ar    1  UNL1        0.0163
      3 C         140.2236  143.3467  162.8528 C.ar    1  UNL1        0.0253
      4 C         139.0416  142.6432  163.4510 C.ar    1  UNL1        0.1365
      5 C         137.9368  142.1476  162.5658 C.ar    1  UNL1        0.1541
      6 O         136.7548  141.4440  163.1641 O.3     1  UNL1       -0.5039
      7 C         138.0139  142.3556  161.0823 C.ar    1  UNL1        0.0527
      8 H         136.7066  141.3141  164.0908 H       1  UNL1        0.2923
      9 C         138.3451  142.5198  158.0892 C.3     1  UNL1        0.1122
     10 N         139.2729  143.2671  159.0005 N.pl3   1  UNL1       -0.3040
     11 C         140.2778  144.2224  158.4283 C.3     1  UNL1        0.1122
     12 N         138.9645  142.4352  164.9346 N.2     1  UNL1       -0.1435
     13 N         140.1796  141.9914  165.6938 N.2     1  UNL1       -0.1284
     14 C         140.1025  141.7834  167.1773 C.ar    1  UNL1        0.1838
     15 C         139.7164  140.4424  167.7276 C.ar    1  UNL1        0.0406
     16 C         139.6393  140.2344  169.2111 C.ar    1  UNL1        0.0048
     17 C         139.9483  141.3674  170.1443 C.ar    1  UNL1        0.0208
     18 C         140.3344  142.7083  169.5941 C.ar    1  UNL1        0.1006
     19 N         140.4115  142.9163  168.1106 N.ar    1  UNL1       -0.2236
@<TRIPOS>BOND
     1     9    10    1
     2    10    11    1
     3    10     1    1
     4     1     2   ar
     5     2     3   ar
     6     3     4   ar
     7     4    12    1
     8    12    13    2
     9    13    14    1
    10    14    15   ar
    11    15    16   ar
    12    16    17   ar
    13    17    18   ar
    14    18    19   ar
    15     4     5   ar
    16     5     6    1
    17     5     7   ar
    18     7     1   ar
    19    19    14   ar
    20     6     8    1
@<TRIPOS>MOLECULE
*****
 19 20 0 0 0
SMALL
GASTEIGER

@<TRIPOS>ATOM
      1 C         144.2084  141.1749  161.5868 C.ar    1  UNL1        0.0511
      2 C         143.5576  141.7050  160.3437 C.ar    1  UNL1        0.0163
      3 C         142.9519  140.7569  159.3516 C.ar    1  UNL1        0.0253
      4 C         142.9970  139.2788  159.6025 C.ar    1  UNL1        0.1365
      5 C         143.6478  138.7487  160.8457 C.ar    1  UNL1        0.1541
      6 O         143.6930  137.2705  161.0967 O.3     1  UNL1       -0.5039
      7 C         144.2535  139.6967  161.8378 C.ar    1  UNL1        0.0527
      8 H         143.3146  136.6783  160.4770 H       1  UNL1        0.2923
      9 C         144.4328  143.5735  162.5595 C.3     1  UNL1        0.1122
     10 N         144.8141  142.1229  162.5790 N.pl3   1  UNL1       -0.3040
     11 C         145.8010  141.6204  163.5906 C.3     1  UNL1        0.1122
     12 N         142.3914  138.3307  158.6104 N.2     1  UNL1       -0.1435
     13 N         143.2202  137.2249  158.0271 N.2     1  UNL1       -0.1284
     14 C         142.6146  136.2769  157.0350 C.ar    1  UNL1        0.1838
     15 C         141.4700  136.7226  156.1739 C.ar    1  UNL1        0.0406
     16 C         140.8643  135.7745  155.1818 C.ar    1  UNL1        0.0048
     17 C         141.4032  134.3808  155.0507 C.ar    1  UNL1        0.0208
     18 C         142.5477  133.9352  155.9117 C.ar    1  UNL1        0.1006
     19 N         143.1534  134.8832  156.9039 N.ar    1  UNL1       -0.2236
@<TRIPOS>BOND
     1     9    10    1
     2    10    11    1
     3    10     1    1
     4     1     2   ar
     5     2     3   ar
     6     3     4   ar
     7     4    12    1
     8    12    13    2
     9    13    14    1
    10    14    15   ar
    11    15    16   ar
    12    16    17   ar
    13    17    18   ar
    14    18    19   ar
    15     4     5   ar
    16     5     6    1
    17     5     7   ar
    18     7     1   ar
    19    19    14   ar
    20     6     8    1
@<TRIPOS>MOLECULE
*****
 19 20 0 0 0
SMALL
GASTEIGER

@<TRIPOS>ATOM
      1 C         138.3490  139.6513  164.8514 C.ar    1  UNL1        0.0511
      2 C         137.8238  140.9699  164.3663 C.ar    1  UNL1        0.0163
      3 C         137.5980  141.1938  162.9004 C.ar    1  UNL1        0.0253
      4 C         137.8975  140.0991  161.9196 C.ar    1  UNL1        0.1365
      5 C         138.4227  138.7805  162.4048 C.ar    1  UNL1        0.1541
      6 O         138.7222  137.6857  161.4240 O.3     1  UNL1       -0.5039
      7 C         138.6484  138.5566  163.8707 C.ar    1  UNL1        0.0527
      8 H         138.5812  137.8256  160.5083 H       1  UNL1        0.2923
      9 C         137.6766  138.5003  167.0815 C.3     1  UNL1        0.1122
     10 N         138.5747  139.4274  166.3173 N.pl3   1  UNL1       -0.3040
     11 C         139.6985  140.1305  167.0191 C.3     1  UNL1        0.1122
     12 N         137.6718  140.3230  160.4537 N.2     1  UNL1       -0.1435
     13 N         138.7222  139.9178  159.4626 N.2     1  UNL1       -0.1284
     14 C         138.4965  140.1417  157.9967 C.ar    1  UNL1        0.1838
     15 C         137.7505  141.3565  157.5297 C.ar    1  UNL1        0.0406
     16 C         137.5247  141.5804  156.0637 C.ar    1  UNL1        0.0048
     17 C         138.0450  140.5896  155.0649 C.ar    1  UNL1        0.0208
     18 C         138.7910  139.3749  155.5319 C.ar    1  UNL1        0.1006
     19 N         139.0167  139.1510  156.9978 N.ar    1  UNL1       -0.2236
@<TRIPOS>BOND
     1     9    10    1
     2    10    11    1
     3    10     1    1
     4     1     2   ar
     5     2     3   ar
     6     3     4   ar
     7     4    12    1
     8    12    13    2
     9    13    14    1
    10    14    15   ar
    11    15    16   ar
    12    16    17   ar
    13    17    18   ar
    14    18    19   ar
    15     4     5   ar
    16     5     6    1
    17     5     7   ar
    18     7     1   ar
    19    19    14   ar
    20     6     8    1
