@<TRIPOS>MOLECULE
*****
 31 35 0 0 0
SMALL
GASTEIGER

@<TRIPOS>ATOM
      1 C         141.7864  138.7728  161.5999 C.ar    1  UNL1        0.0681
      2 C         142.7607  137.6514  161.3920 C.ar    1  UNL1        0.0208
      3 C         143.1886  137.2774  160.0038 C.ar    1  UNL1        0.0384
      4 C         142.6421  138.0248  158.8236 C.ar    1  UNL1        0.1385
      5 C         141.6678  139.1461  159.0315 C.ar    1  UNL1        0.0384
      6 C         141.2400  139.5201  160.4197 C.ar    1  UNL1        0.0208
      7 C         140.0748  140.2691  167.1526 C.ar    1  UNL1        0.1564
      8 C         138.8379  139.6620  167.7453 C.ar    1  UNL1        0.0385
      9 C         138.0289  138.6807  166.9499 C.ar    1  UNL1        0.0034
     10 C         138.4568  138.3066  165.5618 C.ar    1  UNL1        0.0065
     11 C         139.6937  138.9138  164.9691 C.ar    1  UNL1        0.0772
     12 C         140.1216  138.5397  163.5809 C.ar    1  UNL1        0.2671
     13 O         139.3125  137.5585  162.7855 O.2     1  UNL1       -0.2665
     14 N         141.3585  139.1469  162.9881 N.ar    1  UNL1       -0.2626
     15 C         142.1675  140.1281  163.7835 C.ar    1  UNL1        0.1269
     16 C         143.4045  140.7352  163.1907 C.3     1  UNL1        0.0723
     17 N         141.7397  140.5022  165.1716 N.ar    1  UNL1       -0.2288
     18 C         140.5027  139.8950  165.7644 C.ar    1  UNL1        0.1210
     19 C         140.5364  142.7091  167.9162 C.3     1  UNL1        0.2525
     20 O         140.8839  141.2503  167.9480 O.3     1  UNL1       -0.4699
     21 O         143.0701  137.6507  157.4354 O.3     1  UNL1       -0.4791
     22 C         142.6951  136.3130  156.8699 C.3     1  UNL1        0.1687
     23 C         143.4404  135.0830  157.2958 C.3     1  UNL1        0.0609
     24 C         143.0654  133.7453  156.7302 C.3     1  UNL1        0.0758
     25 N         141.9450  133.6376  155.7387 N.3     1  UNL1       -0.2737
     26 C         141.1996  134.8676  155.3127 C.3     1  UNL1        0.0758
     27 C         141.5747  136.2054  155.8784 C.3     1  UNL1        0.0609
     28 C         141.5700  132.2999  155.1731 C.3     1  UNL1        0.0575
     29 C         141.8456  130.8742  155.5493 C.3     1  UNL1        0.0160
     30 C         141.0396  130.4081  154.3733 C.3     1  UNL1        0.0028
     31 C         140.7640  131.8337  153.9971 C.3     1  UNL1        0.0160
@<TRIPOS>BOND
     1    19    20    1
     2    20     7    1
     3     7     8   ar
     4     8     9   ar
     5     9    10   ar
     6    10    11   ar
     7    11    12   ar
     8    12    13    2
     9    12    14   ar
    10    14     1    1
    11     1     2   ar
    12     2     3   ar
    13     3     4   ar
    14     4    21    1
    15    21    22    1
    16    22    23    1
    17    23    24    1
    18    24    25    1
    19    25    28    1
    20    28    29    1
    21    29    30    1
    22    30    31    1
    23    25    26    1
    24    26    27    1
    25     4     5   ar
    26     5     6   ar
    27    14    15   ar
    28    15    16    1
    29    15    17   ar
    30    17    18   ar
    31    18     7   ar
    32    18    11   ar
    33     6     1   ar
    34    27    22    1
    35    31    28    1
@<TRIPOS>MOLECULE
*****
 31 35 0 0 0
SMALL
GASTEIGER

@<TRIPOS>ATOM
      1 C         142.3961  138.7935  159.5679 C.ar    1  UNL1        0.0681
      2 C         142.7273  140.2378  159.8011 C.ar    1  UNL1        0.0208
      3 C         143.5640  140.6342  160.9812 C.ar    1  UNL1        0.0384
      4 C         144.0696  139.5864  161.9281 C.ar    1  UNL1        0.1385
      5 C         143.7384  138.1422  161.6949 C.ar    1  UNL1        0.0384
      6 C         142.9016  137.7457  160.5148 C.ar    1  UNL1        0.0208
      7 C         139.0490  137.2076  154.8475 C.ar    1  UNL1        0.1564
      8 C         139.7087  136.7961  153.5647 C.ar    1  UNL1        0.0385
      9 C         141.2051  136.7811  153.4620 C.ar    1  UNL1        0.0034
     10 C         142.0418  137.1776  154.6421 C.ar    1  UNL1        0.0065
     11 C         141.3822  137.5891  155.9248 C.ar    1  UNL1        0.0772
     12 C         142.2190  137.9856  157.1050 C.ar    1  UNL1        0.2671
     13 O         143.7154  137.9706  157.0023 O.2     1  UNL1       -0.2665
     14 N         141.5593  138.3970  158.3878 N.ar    1  UNL1       -0.2626
     15 C         140.0629  138.4120  158.4905 C.ar    1  UNL1        0.1269
     16 C         139.4033  138.8235  159.7733 C.3     1  UNL1        0.0723
     17 N         139.2262  138.0155  157.3104 N.ar    1  UNL1       -0.2288
     18 C         139.8858  137.6040  156.0276 C.ar    1  UNL1        0.1210
     19 C         136.7593  138.2478  154.1956 C.3     1  UNL1        0.2525
     20 O         137.5526  137.2225  154.9502 O.3     1  UNL1       -0.4699
     21 O         144.9063  139.9829  163.1082 O.3     1  UNL1       -0.4791
     22 C         144.2530  140.5453  164.3358 C.3     1  UNL1        0.1687
     23 C         143.5087  139.6393  165.2712 C.3     1  UNL1        0.0609
     24 C         142.8554  140.2017  166.4988 C.3     1  UNL1        0.0758
     25 N         142.9465  141.6702  166.7909 N.3     1  UNL1       -0.2737
     26 C         143.6908  142.5762  165.8555 C.3     1  UNL1        0.0758
     27 C         144.3441  142.0138  164.6279 C.3     1  UNL1        0.0609
     28 C         142.2932  142.2326  168.0185 C.3     1  UNL1        0.0575
     29 C         140.9070  142.6860  168.3691 C.3     1  UNL1        0.0160
     30 C         141.3693  143.0279  169.7545 C.3     1  UNL1        0.0028
     31 C         142.7555  142.5745  169.4039 C.3     1  UNL1        0.0160
@<TRIPOS>BOND
     1    19    20    1
     2    20     7    1
     3     7     8   ar
     4     8     9   ar
     5     9    10   ar
     6    10    11   ar
     7    11    12   ar
     8    12    13    2
     9    12    14   ar
    10    14     1    1
    11     1     2   ar
    12     2     3   ar
    13     3     4   ar
    14     4    21    1
    15    21    22    1
    16    22    23    1
    17    23    24    1
    18    24    25    1
    19    25    28    1
    20    28    29    1
    21    29    30    1
    22    30    31    1
    23    25    26    1
    24    26    27    1
    25     4     5   ar
    26     5     6   ar
    27    14    15   ar
    28    15    16    1
    29    15    17   ar
    30    17    18   ar
    31    18     7   ar
    32    18    11   ar
    33     6     1   ar
    34    27    22    1
    35    31    28    1
@<TRIPOS>MOLECULE
*****
 31 35 0 0 0
SMALL
GASTEIGER

@<TRIPOS>ATOM
      1 C         140.5713  138.8430  158.7016 C.ar    1  UNL1        0.0681
      2 C         142.0375  138.5340  158.7704 C.ar    1  UNL1        0.0208
      3 C         142.6537  137.5961  157.7751 C.ar    1  UNL1        0.0384
      4 C         141.8038  136.9672  156.7111 C.ar    1  UNL1        0.1385
      5 C         140.3376  137.2762  156.6424 C.ar    1  UNL1        0.0384
      6 C         139.7214  138.2141  157.6376 C.ar    1  UNL1        0.0208
      7 C         138.1061  142.5948  162.6825 C.ar    1  UNL1        0.1564
      8 C         137.7064  142.0929  164.0383 C.ar    1  UNL1        0.0385
      9 C         137.9229  140.6531  164.3990 C.ar    1  UNL1        0.0034
     10 C         138.5392  139.7152  163.4038 C.ar    1  UNL1        0.0065
     11 C         138.9389  140.2170  162.0480 C.ar    1  UNL1        0.0772
     12 C         139.5553  139.2791  161.0527 C.ar    1  UNL1        0.2671
     13 O         139.7718  137.8393  161.4133 O.2     1  UNL1       -0.2665
     14 N         139.9550  139.7810  159.6969 N.ar    1  UNL1       -0.2626
     15 C         139.7385  141.2208  159.3363 C.ar    1  UNL1        0.1269
     16 C         140.1382  141.7226  157.9804 C.3     1  UNL1        0.0723
     17 N         139.1222  142.1587  160.3314 N.ar    1  UNL1       -0.2288
     18 C         138.7224  141.6569  161.6873 C.ar    1  UNL1        0.1210
     19 C         138.9561  145.0489  162.6114 C.3     1  UNL1        0.2525
     20 O         137.8896  144.0346  162.3219 O.3     1  UNL1       -0.4699
     21 O         142.4201  136.0293  155.7159 O.3     1  UNL1       -0.4791
     22 C         142.6529  134.5936  156.0826 C.3     1  UNL1        0.1687
     23 C         141.7890  133.5190  155.4919 C.3     1  UNL1        0.0609
     24 C         142.0218  132.0833  155.8587 C.3     1  UNL1        0.0758
     25 N         143.1185  131.7221  156.8163 N.3     1  UNL1       -0.2737
     26 C         143.9824  132.7967  157.4070 C.3     1  UNL1        0.0758
     27 C         143.7496  134.2325  157.0402 C.3     1  UNL1        0.0609
     28 C         143.3513  130.2865  157.1830 C.3     1  UNL1        0.0575
     29 C         144.1403  129.5771  158.2434 C.3     1  UNL1        0.0160
     30 C         143.6805  128.2560  157.7018 C.3     1  UNL1        0.0028
     31 C         142.8916  128.9654  156.6414 C.3     1  UNL1        0.0160
@<TRIPOS>BOND
     1    19    20    1
     2    20     7    1
     3     7     8   ar
     4     8     9   ar
     5     9    10   ar
     6    10    11   ar
     7    11    12   ar
     8    12    13    2
     9    12    14   ar
    10    14     1    1
    11     1     2   ar
    12     2     3   ar
    13     3     4   ar
    14     4    21    1
    15    21    22    1
    16    22    23    1
    17    23    24    1
    18    24    25    1
    19    25    28    1
    20    28    29    1
    21    29    30    1
    22    30    31    1
    23    25    26    1
    24    26    27    1
    25     4     5   ar
    26     5     6   ar
    27    14    15   ar
    28    15    16    1
    29    15    17   ar
    30    17    18   ar
    31    18     7   ar
    32    18    11   ar
    33     6     1   ar
    34    27    22    1
    35    31    28    1
@<TRIPOS>MOLECULE
*****
 31 35 0 0 0
SMALL
GASTEIGER

@<TRIPOS>ATOM
      1 C         138.6448  140.7657  159.9626 C.ar    1  UNL1        0.0681
      2 C         137.8947  141.0947  161.2192 C.ar    1  UNL1        0.0208
      3 C         137.9603  140.1673  162.3963 C.ar    1  UNL1        0.0384
      4 C         138.7759  138.9109  162.3167 C.ar    1  UNL1        0.1385
      5 C         139.5260  138.5820  161.0601 C.ar    1  UNL1        0.0384
      6 C         139.4604  139.5094  159.8830 C.ar    1  UNL1        0.0208
      7 C         138.3826  144.4753  155.2540 C.ar    1  UNL1        0.1564
      8 C         137.3618  144.2507  154.1782 C.ar    1  UNL1        0.0385
      9 C         136.4064  143.0987  154.2795 C.ar    1  UNL1        0.0034
     10 C         136.4719  142.1713  155.4566 C.ar    1  UNL1        0.0065
     11 C         137.4928  142.3959  156.5324 C.ar    1  UNL1        0.0772
     12 C         137.5584  141.4685  157.7096 C.ar    1  UNL1        0.2671
     13 O         136.6030  140.3165  157.8109 O.2     1  UNL1       -0.2665
     14 N         138.5792  141.6931  158.7854 N.ar    1  UNL1       -0.2626
     15 C         139.5346  142.8451  158.6841 C.ar    1  UNL1        0.1269
     16 C         140.5555  143.0697  159.7599 C.3     1  UNL1        0.0723
     17 N         139.4690  143.7725  157.5070 N.ar    1  UNL1       -0.2288
     18 C         138.4481  143.5479  156.4311 C.ar    1  UNL1        0.1210
     19 C         138.8365  147.0330  155.3028 C.3     1  UNL1        0.2525
     20 O         139.3380  145.6273  155.1527 O.3     1  UNL1       -0.4699
     21 O         138.8415  137.9835  163.4939 O.3     1  UNL1       -0.4791
     22 C         139.1603  138.5228  164.8568 C.3     1  UNL1        0.1687
     23 C         138.0860  138.6072  165.9002 C.3     1  UNL1        0.0609
     24 C         138.4049  139.1466  167.2630 C.3     1  UNL1        0.0758
     25 N         139.7981  139.6016  167.5825 N.3     1  UNL1       -0.2737
     26 C         140.8724  139.5172  166.5391 C.3     1  UNL1        0.0758
     27 C         140.5535  138.9778  165.1762 C.3     1  UNL1        0.0609
     28 C         140.1169  140.1409  168.9454 C.3     1  UNL1        0.0575
     29 C         141.2975  140.0629  169.8674 C.3     1  UNL1        0.0160
     30 C         140.5679  140.9037  170.8728 C.3     1  UNL1        0.0028
     31 C         139.3873  140.9817  169.9507 C.3     1  UNL1        0.0160
@<TRIPOS>BOND
     1    19    20    1
     2    20     7    1
     3     7     8   ar
     4     8     9   ar
     5     9    10   ar
     6    10    11   ar
     7    11    12   ar
     8    12    13    2
     9    12    14   ar
    10    14     1    1
    11     1     2   ar
    12     2     3   ar
    13     3     4   ar
    14     4    21    1
    15    21    22    1
    16    22    23    1
    17    23    24    1
    18    24    25    1
    19    25    28    1
    20    28    29    1
    21    29    30    1
    22    30    31    1
    23    25    26    1
    24    26    27    1
    25     4     5   ar
    26     5     6   ar
    27    14    15   ar
    28    15    16    1
    29    15    17   ar
    30    17    18   ar
    31    18     7   ar
    32    18    11   ar
    33     6     1   ar
    34    27    22    1
    35    31    28    1
@<TRIPOS>MOLECULE
*****
 31 35 0 0 0
SMALL
GASTEIGER

@<TRIPOS>ATOM
      1 C         139.9573  141.8013  161.5080 C.ar    1  UNL1        0.0681
      2 C         139.0603  142.8519  160.9235 C.ar    1  UNL1        0.0208
      3 C         139.0352  143.0762  159.4407 C.ar    1  UNL1        0.0384
      4 C         139.9071  142.2500  158.5422 C.ar    1  UNL1        0.1385
      5 C         140.8041  141.1994  159.1267 C.ar    1  UNL1        0.0384
      6 C         140.8292  140.9750  160.6095 C.ar    1  UNL1        0.0208
      7 C         140.0580  140.9037  167.4396 C.ar    1  UNL1        0.1564
      8 C         139.1611  139.8722  168.0574 C.ar    1  UNL1        0.0385
      9 C         138.2390  139.0652  167.1923 C.ar    1  UNL1        0.0034
     10 C         138.2138  139.2895  165.7094 C.ar    1  UNL1        0.0065
     11 C         139.1107  140.3210  165.0917 C.ar    1  UNL1        0.0772
     12 C         139.0856  140.5454  163.6087 C.ar    1  UNL1        0.2671
     13 O         138.1635  139.7383  162.7436 O.2     1  UNL1       -0.2665
     14 N         139.9825  141.5768  162.9909 N.ar    1  UNL1       -0.2626
     15 C         140.9045  142.3839  163.8561 C.ar    1  UNL1        0.1269
     16 C         141.8015  143.4154  163.2382 C.3     1  UNL1        0.0723
     17 N         140.9297  142.1595  165.3389 N.ar    1  UNL1       -0.2288
     18 C         140.0328  141.1280  165.9568 C.ar    1  UNL1        0.1210
     19 C         140.4968  142.9848  168.9316 C.3     1  UNL1        0.2525
     20 O         140.9801  141.7107  168.3048 O.3     1  UNL1       -0.4699
     21 O         139.8819  142.4744  157.0593 O.3     1  UNL1       -0.4791
     22 C         139.7963  143.8688  156.5131 C.3     1  UNL1        0.1687
     23 C         138.5333  144.3406  155.8557 C.3     1  UNL1        0.0609
     24 C         138.4477  145.7349  155.3095 C.3     1  UNL1        0.0758
     25 N         139.6252  146.6576  155.4207 N.3     1  UNL1       -0.2737
     26 C         140.8882  146.1859  156.0782 C.3     1  UNL1        0.0758
     27 C         140.9737  144.7914  156.6244 C.3     1  UNL1        0.0609
     28 C         139.5396  148.0520  154.8746 C.3     1  UNL1        0.0575
     29 C         138.9241  149.3379  155.3411 C.3     1  UNL1        0.0160
     30 C         139.4185  150.0240  154.1022 C.3     1  UNL1        0.0028
     31 C         140.0340  148.7381  153.6357 C.3     1  UNL1        0.0160
@<TRIPOS>BOND
     1    19    20    1
     2    20     7    1
     3     7     8   ar
     4     8     9   ar
     5     9    10   ar
     6    10    11   ar
     7    11    12   ar
     8    12    13    2
     9    12    14   ar
    10    14     1    1
    11     1     2   ar
    12     2     3   ar
    13     3     4   ar
    14     4    21    1
    15    21    22    1
    16    22    23    1
    17    23    24    1
    18    24    25    1
    19    25    28    1
    20    28    29    1
    21    29    30    1
    22    30    31    1
    23    25    26    1
    24    26    27    1
    25     4     5   ar
    26     5     6   ar
    27    14    15   ar
    28    15    16    1
    29    15    17   ar
    30    17    18   ar
    31    18     7   ar
    32    18    11   ar
    33     6     1   ar
    34    27    22    1
    35    31    28    1
@<TRIPOS>MOLECULE
*****
 31 35 0 0 0
SMALL
GASTEIGER

@<TRIPOS>ATOM
      1 C         140.5957  140.1193  160.0348 C.ar    1  UNL1        0.0681
      2 C         141.4236  140.6678  158.9107 C.ar    1  UNL1        0.0208
      3 C         141.5224  139.9165  157.6162 C.ar    1  UNL1        0.0384
      4 C         140.7934  138.6167  157.4459 C.ar    1  UNL1        0.1385
      5 C         139.9655  138.0682  158.5700 C.ar    1  UNL1        0.0384
      6 C         139.8667  138.8195  159.8645 C.ar    1  UNL1        0.0208
      7 C         140.2003  143.1244  165.2130 C.ar    1  UNL1        0.1564
      8 C         139.1050  144.1289  165.4154 C.ar    1  UNL1        0.0385
      9 C         138.1084  144.3822  164.3233 C.ar    1  UNL1        0.0034
     10 C         138.2072  143.6310  163.0288 C.ar    1  UNL1        0.0065
     11 C         139.3026  142.6264  162.8264 C.ar    1  UNL1        0.0772
     12 C         139.4015  141.8751  161.5318 C.ar    1  UNL1        0.2671
     13 O         138.4049  142.1284  160.4397 O.2     1  UNL1       -0.2665
     14 N         140.4968  140.8706  161.3294 N.ar    1  UNL1       -0.2626
     15 C         141.4934  140.6173  162.4215 C.ar    1  UNL1        0.1269
     16 C         142.5888  139.6127  162.2191 C.3     1  UNL1        0.0723
     17 N         141.3946  141.3686  163.7160 N.ar    1  UNL1       -0.2288
     18 C         140.2992  142.3732  163.9185 C.ar    1  UNL1        0.1210
     19 C         140.7249  142.5043  167.6808 C.3     1  UNL1        0.2525
     20 O         141.1969  142.8711  166.3051 O.3     1  UNL1       -0.4699
     21 O         140.8922  137.8653  156.1513 O.3     1  UNL1       -0.4791
     22 C         141.6231  136.5566  156.0976 C.3     1  UNL1        0.1687
     23 C         141.0984  135.4389  155.2459 C.3     1  UNL1        0.0609
     24 C         141.8293  134.1302  155.1922 C.3     1  UNL1        0.0758
     25 N         143.0849  133.9390  155.9903 N.3     1  UNL1       -0.2737
     26 C         143.6096  135.0567  156.8421 C.3     1  UNL1        0.0758
     27 C         142.8787  136.3655  156.8957 C.3     1  UNL1        0.0609
     28 C         143.8158  132.6303  155.9367 C.3     1  UNL1        0.0575
     29 C         144.9372  132.0089  156.7154 C.3     1  UNL1        0.0160
     30 C         144.8495  130.7794  155.8608 C.3     1  UNL1        0.0028
     31 C         143.7281  131.4007  155.0820 C.3     1  UNL1        0.0160
@<TRIPOS>BOND
     1    19    20    1
     2    20     7    1
     3     7     8   ar
     4     8     9   ar
     5     9    10   ar
     6    10    11   ar
     7    11    12   ar
     8    12    13    2
     9    12    14   ar
    10    14     1    1
    11     1     2   ar
    12     2     3   ar
    13     3     4   ar
    14     4    21    1
    15    21    22    1
    16    22    23    1
    17    23    24    1
    18    24    25    1
    19    25    28    1
    20    28    29    1
    21    29    30    1
    22    30    31    1
    23    25    26    1
    24    26    27    1
    25     4     5   ar
    26     5     6   ar
    27    14    15   ar
    28    15    16    1
    29    15    17   ar
    30    17    18   ar
    31    18     7   ar
    32    18    11   ar
    33     6     1   ar
    34    27    22    1
    35    31    28    1
@<TRIPOS>MOLECULE
*****
 31 35 0 0 0
SMALL
GASTEIGER

@<TRIPOS>ATOM
      1 C         140.5611  144.2087  159.4563 C.ar    1  UNL1        0.0681
      2 C         141.4204  145.3439  158.9844 C.ar    1  UNL1        0.0208
      3 C         141.3331  145.8092  157.5611 C.ar    1  UNL1        0.0384
      4 C         140.3864  145.1393  156.6098 C.ar    1  UNL1        0.1385
      5 C         139.5270  144.0041  157.0817 C.ar    1  UNL1        0.0384
      6 C         139.6144  143.5388  158.5050 C.ar    1  UNL1        0.0208
      7 C         140.9105  142.3472  165.1496 C.ar    1  UNL1        0.1564
      8 C         140.1474  143.0666  166.2220 C.ar    1  UNL1        0.0385
      9 C         139.2969  144.2513  165.8712 C.ar    1  UNL1        0.0034
     10 C         139.2095  144.7167  164.4479 C.ar    1  UNL1        0.0065
     11 C         139.9726  143.9973  163.3755 C.ar    1  UNL1        0.0772
     12 C         139.8853  144.4627  161.9521 C.ar    1  UNL1        0.2671
     13 O         139.0348  145.6474  161.6013 O.2     1  UNL1       -0.2665
     14 N         140.6484  143.7433  160.8797 N.ar    1  UNL1       -0.2626
     15 C         141.4989  142.5586  161.2306 C.ar    1  UNL1        0.1269
     16 C         142.2620  141.8392  160.1581 C.3     1  UNL1        0.0723
     17 N         141.5862  142.0932  162.6538 N.ar    1  UNL1       -0.2288
     18 C         140.8231  142.8126  163.7263 C.ar    1  UNL1        0.1210
     19 C         141.1442  139.7985  165.5961 C.3     1  UNL1        0.2525
     20 O         141.7609  141.1625  165.5005 O.3     1  UNL1       -0.4699
     21 O         140.2990  145.6046  155.1864 O.3     1  UNL1       -0.4791
     22 C         139.9745  147.0376  154.8844 C.3     1  UNL1        0.1687
     23 C         140.5988  147.7145  153.7003 C.3     1  UNL1        0.0609
     24 C         140.2743  149.1475  153.3984 C.3     1  UNL1        0.0758
     25 N         139.3254  149.9036  154.2804 N.3     1  UNL1       -0.2737
     26 C         138.7011  149.2267  155.4645 C.3     1  UNL1        0.0758
     27 C         139.0256  147.7936  155.7664 C.3     1  UNL1        0.0609
     28 C         139.0009  151.3366  153.9784 C.3     1  UNL1        0.0575
     29 C         138.4934  152.5003  154.7774 C.3     1  UNL1        0.0160
     30 C         138.5419  153.3631  153.5514 C.3     1  UNL1        0.0028
     31 C         139.0494  152.1994  152.7524 C.3     1  UNL1        0.0160
@<TRIPOS>BOND
     1    19    20    1
     2    20     7    1
     3     7     8   ar
     4     8     9   ar
     5     9    10   ar
     6    10    11   ar
     7    11    12   ar
     8    12    13    2
     9    12    14   ar
    10    14     1    1
    11     1     2   ar
    12     2     3   ar
    13     3     4   ar
    14     4    21    1
    15    21    22    1
    16    22    23    1
    17    23    24    1
    18    24    25    1
    19    25    28    1
    20    28    29    1
    21    29    30    1
    22    30    31    1
    23    25    26    1
    24    26    27    1
    25     4     5   ar
    26     5     6   ar
    27    14    15   ar
    28    15    16    1
    29    15    17   ar
    30    17    18   ar
    31    18     7   ar
    32    18    11   ar
    33     6     1   ar
    34    27    22    1
    35    31    28    1
@<TRIPOS>MOLECULE
*****
 31 35 0 0 0
SMALL
GASTEIGER

@<TRIPOS>ATOM
      1 C         142.3853  142.3549  163.8828 C.ar    1  UNL1        0.0681
      2 C         141.8316  143.6588  163.3896 C.ar    1  UNL1        0.0208
      3 C         142.1132  144.1107  161.9874 C.ar    1  UNL1        0.0384
      4 C         142.9485  143.2587  161.0783 C.ar    1  UNL1        0.1385
      5 C         143.5021  141.9548  161.5714 C.ar    1  UNL1        0.0384
      6 C         143.2205  141.5029  162.9737 C.ar    1  UNL1        0.0208
      7 C         141.2588  140.5469  169.4920 C.ar    1  UNL1        0.1564
      8 C         142.1629  140.9693  170.6119 C.ar    1  UNL1        0.0385
      9 C         143.3485  141.8436  170.3296 C.ar    1  UNL1        0.0034
     10 C         143.6302  142.2956  168.9273 C.ar    1  UNL1        0.0065
     11 C         142.7261  141.8733  167.8074 C.ar    1  UNL1        0.0772
     12 C         143.0077  142.3252  166.4051 C.ar    1  UNL1        0.2671
     13 O         144.1934  143.1996  166.1227 O.2     1  UNL1       -0.2665
     14 N         142.1037  141.9029  165.2852 N.ar    1  UNL1       -0.2626
     15 C         140.9180  141.0285  165.5675 C.ar    1  UNL1        0.1269
     16 C         140.0139  140.6062  164.4475 C.3     1  UNL1        0.0723
     17 N         140.6364  140.5766  166.9698 N.ar    1  UNL1       -0.2288
     18 C         141.5404  140.9989  168.0898 C.ar    1  UNL1        0.1210
     19 C         138.7243  140.2883  170.0013 C.3     1  UNL1        0.2525
     20 O         140.0732  139.6726  169.7743 O.3     1  UNL1       -0.4699
     21 O         143.2301  143.7107  159.6759 O.3     1  UNL1       -0.4791
     22 C         142.0984  143.9201  158.7139 C.3     1  UNL1        0.1687
     23 C         141.6376  142.7909  157.8407 C.3     1  UNL1        0.0609
     24 C         140.5060  143.0004  156.8787 C.3     1  UNL1        0.0758
     25 N         139.8351  144.3391  156.7899 N.3     1  UNL1       -0.2737
     26 C         140.2958  145.4683  157.6632 C.3     1  UNL1        0.0758
     27 C         141.4275  145.2588  158.6252 C.3     1  UNL1        0.0609
     28 C         138.7034  144.5485  155.8280 C.3     1  UNL1        0.0575
     29 C         138.2424  145.6847  154.9639 C.3     1  UNL1        0.0160
     30 C         137.1030  144.8448  154.4675 C.3     1  UNL1        0.0028
     31 C         137.5640  143.7086  155.3316 C.3     1  UNL1        0.0160
@<TRIPOS>BOND
     1    19    20    1
     2    20     7    1
     3     7     8   ar
     4     8     9   ar
     5     9    10   ar
     6    10    11   ar
     7    11    12   ar
     8    12    13    2
     9    12    14   ar
    10    14     1    1
    11     1     2   ar
    12     2     3   ar
    13     3     4   ar
    14     4    21    1
    15    21    22    1
    16    22    23    1
    17    23    24    1
    18    24    25    1
    19    25    28    1
    20    28    29    1
    21    29    30    1
    22    30    31    1
    23    25    26    1
    24    26    27    1
    25     4     5   ar
    26     5     6   ar
    27    14    15   ar
    28    15    16    1
    29    15    17   ar
    30    17    18   ar
    31    18     7   ar
    32    18    11   ar
    33     6     1   ar
    34    27    22    1
    35    31    28    1
@<TRIPOS>MOLECULE
*****
 31 35 0 0 0
SMALL
GASTEIGER

@<TRIPOS>ATOM
      1 C         140.9440  140.0834  162.6559 C.ar    1  UNL1        0.0681
      2 C         142.1977  140.4153  161.9022 C.ar    1  UNL1        0.0208
      3 C         142.2283  140.2946  160.4074 C.ar    1  UNL1        0.0384
      4 C         141.0052  139.8420  159.6663 C.ar    1  UNL1        0.1385
      5 C         139.7515  139.5101  160.4200 C.ar    1  UNL1        0.0384
      6 C         139.7209  139.6308  161.9148 C.ar    1  UNL1        0.0208
      7 C         140.8213  140.5661  168.6352 C.ar    1  UNL1        0.1564
      8 C         140.5468  141.8948  169.2749 C.ar    1  UNL1        0.0385
      9 C         140.3030  143.1028  168.4198 C.ar    1  UNL1        0.0034
     10 C         140.3336  142.9822  166.9250 C.ar    1  UNL1        0.0065
     11 C         140.6081  141.6535  166.2853 C.ar    1  UNL1        0.0772
     12 C         140.6388  141.5328  164.7904 C.ar    1  UNL1        0.2671
     13 O         140.3950  142.7408  163.9353 O.2     1  UNL1       -0.2665
     14 N         140.9133  140.2041  164.1508 N.ar    1  UNL1       -0.2626
     15 C         141.1571  138.9961  165.0059 C.ar    1  UNL1        0.1269
     16 C         141.4316  137.6674  164.3661 C.3     1  UNL1        0.0723
     17 N         141.1265  139.1168  166.5007 N.ar    1  UNL1       -0.2288
     18 C         140.8520  140.4455  167.1404 C.ar    1  UNL1        0.1210
     19 C         142.4490  139.0549  169.9830 C.3     1  UNL1        0.2525
     20 O         141.0651  139.3581  169.4903 O.3     1  UNL1       -0.4699
     21 O         141.0359  139.7213  158.1714 O.3     1  UNL1       -0.4791
     22 C         141.3285  138.3965  157.5318 C.3     1  UNL1        0.1687
     23 C         142.5477  137.6216  157.9357 C.3     1  UNL1        0.0609
     24 C         142.8403  136.2967  157.2960 C.3     1  UNL1        0.0758
     25 N         141.9136  135.7467  156.2525 N.3     1  UNL1       -0.2737
     26 C         140.6944  136.5216  155.8487 C.3     1  UNL1        0.0758
     27 C         140.4019  137.8465  156.4884 C.3     1  UNL1        0.0609
     28 C         142.2062  134.4219  155.6129 C.3     1  UNL1        0.0575
     29 C         142.3749  133.0174  156.1119 C.3     1  UNL1        0.0160
     30 C         142.6200  132.5482  154.7084 C.3     1  UNL1        0.0028
     31 C         142.4513  133.9527  154.2094 C.3     1  UNL1        0.0160
@<TRIPOS>BOND
     1    19    20    1
     2    20     7    1
     3     7     8   ar
     4     8     9   ar
     5     9    10   ar
     6    10    11   ar
     7    11    12   ar
     8    12    13    2
     9    12    14   ar
    10    14     1    1
    11     1     2   ar
    12     2     3   ar
    13     3     4   ar
    14     4    21    1
    15    21    22    1
    16    22    23    1
    17    23    24    1
    18    24    25    1
    19    25    28    1
    20    28    29    1
    21    29    30    1
    22    30    31    1
    23    25    26    1
    24    26    27    1
    25     4     5   ar
    26     5     6   ar
    27    14    15   ar
    28    15    16    1
    29    15    17   ar
    30    17    18   ar
    31    18     7   ar
    32    18    11   ar
    33     6     1   ar
    34    27    22    1
    35    31    28    1
