@<TRIPOS>MOLECULE
*****
 24 25 0 0 0
SMALL
GASTEIGER

@<TRIPOS>ATOM
      1 C         139.0768  139.8646  165.2844 C.ar    1  UNL1        0.1324
      2 N         138.0796  138.8214  165.6932 N.ar    1  UNL1       -0.1993
      3 C         137.8353  138.5464  167.1474 C.ar    1  UNL1        0.2148
      4 N         136.8380  137.5031  167.5562 N.pl3   1  UNL1       -0.3274
      5 N         138.5881  139.3147  168.1928 N.ar    1  UNL1       -0.2139
      6 C         139.5854  140.3581  167.7840 C.ar    1  UNL1        0.0865
      7 C         140.3383  141.1264  168.8294 C.ar    1  UNL1        0.0193
      8 C         141.3355  142.1696  168.4205 C.ar    1  UNL1        0.0012
      9 C         141.5798  142.4445  166.9663 C.ar    1  UNL1       -0.0041
     10 C         140.8269  141.6763  165.9209 C.ar    1  UNL1       -0.0177
     11 C         141.0713  141.9512  164.4667 C.3     1  UNL1        0.0312
     12 C         139.8297  140.6330  166.3298 C.ar    1  UNL1        0.0452
     13 H         136.3439  136.9989  166.8700 H       1  UNL1        0.1452
     14 H         136.6776  137.3227  168.5106 H       1  UNL1        0.1452
     15 N         139.3212  140.1396  163.8302 N.pl3   1  UNL1       -0.3195
     16 H         140.2374  140.1118  163.4711 H       1  UNL1        0.1481
     17 C         138.1695  140.4569  162.9230 C.3     1  UNL1        0.0729
     18 C         137.2412  141.5869  163.2567 C.3     1  UNL1        0.0196
     19 C         137.8711  143.7728  164.5119 C.3     1  UNL1        0.0001
     20 C         137.7416  143.0008  163.2323 C.3     1  UNL1        0.0017
     21 C         137.9461  139.6443  161.6821 C.3     1  UNL1        0.0512
     22 C         137.8768  138.1484  161.7677 C.3     1  UNL1        0.1389
     23 O         138.6112  137.4246  162.8571 O.3     1  UNL1       -0.3819
     24 H         139.5666  137.5360  162.7321 H       1  UNL1        0.2104
@<TRIPOS>BOND
     1    19    20    1
     2    20    18    1
     3    17    18    1
     4    17    21    1
     5    21    22    1
     6    22    23    1
     7    17    15    1
     8    15     1    1
     9     1     2   ar
    10     2     3   ar
    11     3     4    1
    12     3     5   ar
    13     5     6   ar
    14     6     7   ar
    15     7     8   ar
    16     8     9   ar
    17     9    10   ar
    18    10    11    1
    19    10    12   ar
    20    12     1   ar
    21    12     6   ar
    22    23    24    1
    23    15    16    1
    24     4    13    1
    25     4    14    1
@<TRIPOS>MOLECULE
*****
 24 25 0 0 0
SMALL
GASTEIGER

@<TRIPOS>ATOM
      1 C         140.2625  140.1792  167.8410 C.ar    1  UNL1        0.1324
      2 N         139.0375  139.6716  168.5422 N.ar    1  UNL1       -0.1993
      3 C         138.8129  139.9963  169.9892 C.ar    1  UNL1        0.2148
      4 N         137.5878  139.4886  170.6904 N.pl3   1  UNL1       -0.3274
      5 N         139.8132  140.8287  170.7352 N.ar    1  UNL1       -0.2139
      6 C         141.0382  141.3364  170.0340 C.ar    1  UNL1        0.0865
      7 C         142.0386  142.1687  170.7799 C.ar    1  UNL1        0.0193
      8 C         143.2635  142.6764  170.0788 C.ar    1  UNL1        0.0012
      9 C         143.4882  142.3516  168.6317 C.ar    1  UNL1       -0.0041
     10 C         142.4879  141.5193  167.8857 C.ar    1  UNL1       -0.0177
     11 C         142.7125  141.1945  166.4386 C.3     1  UNL1        0.0312
     12 C         141.2629  141.0116  168.5869 C.ar    1  UNL1        0.0452
     13 H         136.9312  138.9423  170.2008 H       1  UNL1        0.1452
     14 H         137.4403  139.7017  171.6402 H       1  UNL1        0.1452
     15 N         140.4871  139.8545  166.3939 N.pl3   1  UNL1       -0.3195
     16 H         141.4038  139.7743  166.0439 H       1  UNL1        0.1481
     17 C         139.3151  139.6519  165.4800 C.3     1  UNL1        0.0729
     18 C         138.9491  138.2703  165.0247 C.3     1  UNL1        0.0196
     19 C         141.1423  137.1064  164.2597 C.3     1  UNL1        0.0001
     20 C         139.7565  137.5941  163.9566 C.3     1  UNL1        0.0017
     21 C         138.5090  140.8309  165.0213 C.3     1  UNL1        0.0512
     22 C         138.1034  140.9478  163.5820 C.3     1  UNL1        0.1389
     23 O         136.6741  141.2319  163.2264 O.3     1  UNL1       -0.3819
     24 H         136.1198  140.4812  163.4908 H       1  UNL1        0.2104
@<TRIPOS>BOND
     1    19    20    1
     2    20    18    1
     3    17    18    1
     4    17    21    1
     5    21    22    1
     6    22    23    1
     7    17    15    1
     8    15     1    1
     9     1     2   ar
    10     2     3   ar
    11     3     4    1
    12     3     5   ar
    13     5     6   ar
    14     6     7   ar
    15     7     8   ar
    16     8     9   ar
    17     9    10   ar
    18    10    11    1
    19    10    12   ar
    20    12     1   ar
    21    12     6   ar
    22    23    24    1
    23    15    16    1
    24     4    13    1
    25     4    14    1
@<TRIPOS>MOLECULE
*****
 24 25 0 0 0
SMALL
GASTEIGER

@<TRIPOS>ATOM
      1 C         140.2091  140.3925  167.8777 C.ar    1  UNL1        0.1324
      2 N         138.9816  139.8669  168.5610 N.ar    1  UNL1       -0.1993
      3 C         138.7759  140.1119  170.0264 C.ar    1  UNL1        0.2148
      4 N         137.5482  139.5862  170.7097 N.pl3   1  UNL1       -0.3274
      5 N         139.7977  140.8826  170.8087 N.ar    1  UNL1       -0.2139
      6 C         141.0253  141.4083  170.1255 C.ar    1  UNL1        0.0865
      7 C         142.0471  142.1789  170.9077 C.ar    1  UNL1        0.0193
      8 C         143.2746  142.7045  170.2245 C.ar    1  UNL1        0.0012
      9 C         143.4803  142.4595  168.7590 C.ar    1  UNL1       -0.0041
     10 C         142.4585  141.6889  167.9768 C.ar    1  UNL1       -0.0177
     11 C         142.6642  141.4439  166.5113 C.3     1  UNL1        0.0312
     12 C         141.2310  141.1632  168.6600 C.ar    1  UNL1        0.0452
     13 H         136.8776  139.0804  170.1962 H       1  UNL1        0.1452
     14 H         137.4132  139.7470  171.6715 H       1  UNL1        0.1452
     15 N         140.4148  140.1475  166.4122 N.pl3   1  UNL1       -0.3195
     16 H         141.2599  139.7567  166.0924 H       1  UNL1        0.1481
     17 C         139.3330  140.4979  165.4341 C.3     1  UNL1        0.0729
     18 C         139.1233  141.9265  165.0276 C.3     1  UNL1        0.0196
     19 C         137.7947  143.4084  163.3576 C.3     1  UNL1        0.0001
     20 C         137.8188  142.3495  164.4198 C.3     1  UNL1        0.0017
     21 C         138.4607  139.4197  164.8624 C.3     1  UNL1        0.0512
     22 C         138.4498  138.0550  165.4849 C.3     1  UNL1        0.1389
     23 O         137.8851  137.8630  166.8612 O.3     1  UNL1       -0.3819
     24 H         138.4384  138.3311  167.5059 H       1  UNL1        0.2104
@<TRIPOS>BOND
     1    19    20    1
     2    20    18    1
     3    17    18    1
     4    17    21    1
     5    21    22    1
     6    22    23    1
     7    17    15    1
     8    15     1    1
     9     1     2   ar
    10     2     3   ar
    11     3     4    1
    12     3     5   ar
    13     5     6   ar
    14     6     7   ar
    15     7     8   ar
    16     8     9   ar
    17     9    10   ar
    18    10    11    1
    19    10    12   ar
    20    12     1   ar
    21    12     6   ar
    22    23    24    1
    23    15    16    1
    24     4    13    1
    25     4    14    1
@<TRIPOS>MOLECULE
*****
 24 25 0 0 0
SMALL
GASTEIGER

@<TRIPOS>ATOM
      1 C         139.1612  140.5870  164.8024 C.ar    1  UNL1        0.1324
      2 N         139.6958  141.5137  163.7510 N.ar    1  UNL1       -0.1993
      3 C         140.6072  142.6406  164.1377 C.ar    1  UNL1        0.2148
      4 N         141.1417  143.5673  163.0862 N.pl3   1  UNL1       -0.3274
      5 N         140.9841  142.8407  165.5757 N.ar    1  UNL1       -0.2139
      6 C         140.4495  141.9139  166.6271 C.ar    1  UNL1        0.0865
      7 C         140.8264  142.1141  168.0651 C.ar    1  UNL1        0.0193
      8 C         140.2919  141.1873  169.1164 C.ar    1  UNL1        0.0012
      9 C         139.3805  140.0605  168.7298 C.ar    1  UNL1       -0.0041
     10 C         139.0036  139.8603  167.2918 C.ar    1  UNL1       -0.0177
     11 C         138.0921  138.7335  166.9052 C.3     1  UNL1        0.0312
     12 C         139.5381  140.7871  166.2405 C.ar    1  UNL1        0.0452
     13 H         140.8944  143.4360  162.1424 H       1  UNL1        0.1452
     14 H         141.7399  144.3069  163.3400 H       1  UNL1        0.1452
     15 N         138.2498  139.4601  164.4158 N.pl3   1  UNL1       -0.3195
     16 H         137.3596  139.3830  164.8292 H       1  UNL1        0.1481
     17 C         138.6946  138.4507  163.3993 C.3     1  UNL1        0.0729
     18 C         139.7279  137.4258  163.7625 C.3     1  UNL1        0.0196
     19 C         141.9135  138.1143  164.9870 C.3     1  UNL1        0.0001
     20 C         141.1846  137.7813  163.7190 C.3     1  UNL1        0.0017
     21 C         138.1061  138.4662  162.0196 C.3     1  UNL1        0.0512
     22 C         137.7783  139.7722  161.3587 C.3     1  UNL1        0.1389
     23 O         136.9954  140.8133  162.1023 O.3     1  UNL1       -0.3819
     24 H         136.0976  140.4855  162.2683 H       1  UNL1        0.2104
@<TRIPOS>BOND
     1    19    20    1
     2    20    18    1
     3    17    18    1
     4    17    21    1
     5    21    22    1
     6    22    23    1
     7    17    15    1
     8    15     1    1
     9     1     2   ar
    10     2     3   ar
    11     3     4    1
    12     3     5   ar
    13     5     6   ar
    14     6     7   ar
    15     7     8   ar
    16     8     9   ar
    17     9    10   ar
    18    10    11    1
    19    10    12   ar
    20    12     1   ar
    21    12     6   ar
    22    23    24    1
    23    15    16    1
    24     4    13    1
    25     4    14    1
@<TRIPOS>MOLECULE
*****
 24 25 0 0 0
SMALL
GASTEIGER

@<TRIPOS>ATOM
      1 C         141.9323  142.2250  163.5972 C.ar    1  UNL1        0.1324
      2 N         143.0580  143.1328  163.1990 N.ar    1  UNL1       -0.1993
      3 C         142.8399  144.6156  163.1374 C.ar    1  UNL1        0.2148
      4 N         143.9657  145.5234  162.7392 N.pl3   1  UNL1       -0.3274
      5 N         141.4960  145.1906  163.4740 N.ar    1  UNL1       -0.2139
      6 C         140.3702  144.2828  163.8723 C.ar    1  UNL1        0.0865
      7 C         139.0263  144.8578  164.2089 C.ar    1  UNL1        0.0193
      8 C         137.9006  143.9500  164.6071 C.ar    1  UNL1        0.0012
      9 C         138.1187  142.4673  164.6687 C.ar    1  UNL1       -0.0041
     10 C         139.4626  141.8923  164.3321 C.ar    1  UNL1       -0.0177
     11 C         139.6807  140.4095  164.3937 C.3     1  UNL1        0.0312
     12 C         140.5883  142.8000  163.9339 C.ar    1  UNL1        0.0452
     13 H         144.8477  145.1459  162.5182 H       1  UNL1        0.1452
     14 H         143.8226  146.4966  162.6987 H       1  UNL1        0.1452
     15 N         142.1504  140.7423  163.6588 N.pl3   1  UNL1       -0.3195
     16 H         141.5412  140.1348  163.1802 H       1  UNL1        0.1481
     17 C         143.2967  140.1850  164.4497 C.3     1  UNL1        0.0729
     18 C         143.0983  139.7942  165.8843 C.3     1  UNL1        0.0196
     19 C         143.0987  142.1422  166.9965 C.3     1  UNL1        0.0001
     20 C         142.5033  140.7729  166.8529 C.3     1  UNL1        0.0017
     21 C         144.6413  140.0186  163.8060 C.3     1  UNL1        0.0512
     22 C         145.6663  141.1080  163.9177 C.3     1  UNL1        0.1389
     23 O         145.9800  141.9672  162.7289 O.3     1  UNL1       -0.3819
     24 H         146.3935  141.4256  162.0386 H       1  UNL1        0.2104
@<TRIPOS>BOND
     1    19    20    1
     2    20    18    1
     3    17    18    1
     4    17    21    1
     5    21    22    1
     6    22    23    1
     7    17    15    1
     8    15     1    1
     9     1     2   ar
    10     2     3   ar
    11     3     4    1
    12     3     5   ar
    13     5     6   ar
    14     6     7   ar
    15     7     8   ar
    16     8     9   ar
    17     9    10   ar
    18    10    11    1
    19    10    12   ar
    20    12     1   ar
    21    12     6   ar
    22    23    24    1
    23    15    16    1
    24     4    13    1
    25     4    14    1
@<TRIPOS>MOLECULE
*****
 24 25 0 0 0
SMALL
GASTEIGER

@<TRIPOS>ATOM
      1 C         142.0902  140.1278  167.6446 C.ar    1  UNL1        0.1324
      2 N         142.7039  138.9461  168.3351 N.ar    1  UNL1       -0.1993
      3 C         142.7132  138.8745  169.8334 C.ar    1  UNL1        0.2148
      4 N         143.3270  137.6927  170.5240 N.pl3   1  UNL1       -0.3274
      5 N         142.1089  139.9845  170.6411 N.ar    1  UNL1       -0.2139
      6 C         141.4951  141.1663  169.9505 C.ar    1  UNL1        0.0865
      7 C         140.8908  142.2764  170.7582 C.ar    1  UNL1        0.0193
      8 C         140.2771  143.4581  170.0676 C.ar    1  UNL1        0.0012
      9 C         140.2678  143.5297  168.5694 C.ar    1  UNL1       -0.0041
     10 C         140.8721  142.4196  167.7617 C.ar    1  UNL1       -0.0177
     11 C         140.8628  142.4913  166.2634 C.3     1  UNL1        0.0312
     12 C         141.4858  141.2379  168.4523 C.ar    1  UNL1        0.0452
     13 H         143.7237  136.9641  169.9938 H       1  UNL1        0.1452
     14 H         143.3331  137.6457  171.5073 H       1  UNL1        0.1452
     15 N         142.0809  140.1994  166.1463 N.pl3   1  UNL1       -0.3195
     16 H         142.5932  140.9015  165.6839 H       1  UNL1        0.1481
     17 C         141.2911  139.2013  165.3526 C.3     1  UNL1        0.0729
     18 C         139.8235  139.4144  165.1276 C.3     1  UNL1        0.0196
     19 C         138.3539  139.2011  167.2595 C.3     1  UNL1        0.0001
     20 C         138.8213  138.6531  165.9437 C.3     1  UNL1        0.0017
     21 C         141.9690  137.9900  164.7840 C.3     1  UNL1        0.0512
     22 C         141.1950  137.0280  163.9321 C.3     1  UNL1        0.1389
     23 O         141.4349  136.9760  162.4524 O.3     1  UNL1       -0.3819
     24 H         141.1535  137.8123  162.0496 H       1  UNL1        0.2104
@<TRIPOS>BOND
     1    19    20    1
     2    20    18    1
     3    17    18    1
     4    17    21    1
     5    21    22    1
     6    22    23    1
     7    17    15    1
     8    15     1    1
     9     1     2   ar
    10     2     3   ar
    11     3     4    1
    12     3     5   ar
    13     5     6   ar
    14     6     7   ar
    15     7     8   ar
    16     8     9   ar
    17     9    10   ar
    18    10    11    1
    19    10    12   ar
    20    12     1   ar
    21    12     6   ar
    22    23    24    1
    23    15    16    1
    24     4    13    1
    25     4    14    1
@<TRIPOS>MOLECULE
*****
 24 25 0 0 0
SMALL
GASTEIGER

@<TRIPOS>ATOM
      1 C         140.0331  142.1888  164.8892 C.ar    1  UNL1        0.1324
      2 N         138.7679  142.6672  164.2409 N.ar    1  UNL1       -0.1993
      3 C         138.7748  143.9208  163.4172 C.ar    1  UNL1        0.2148
      4 N         137.5095  144.3992  162.7689 N.pl3   1  UNL1       -0.3274
      5 N         140.0469  144.6959  163.2417 N.ar    1  UNL1       -0.2139
      6 C         141.3122  144.2175  163.8900 C.ar    1  UNL1        0.0865
      7 C         142.5843  144.9927  163.7146 C.ar    1  UNL1        0.0193
      8 C         143.8495  144.5143  164.3629 C.ar    1  UNL1        0.0012
      9 C         143.8427  143.2607  165.1866 C.ar    1  UNL1       -0.0041
     10 C         142.5705  142.4856  165.3621 C.ar    1  UNL1       -0.0177
     11 C         142.5636  141.2320  166.1858 C.3     1  UNL1        0.0312
     12 C         141.3053  142.9640  164.7138 C.ar    1  UNL1        0.0452
     13 H         136.6746  143.8904  162.8840 H       1  UNL1        0.1452
     14 H         137.5140  145.2219  162.2282 H       1  UNL1        0.1452
     15 N         140.0262  140.9353  165.7129 N.pl3   1  UNL1       -0.3195
     16 H         140.4785  140.9183  166.5872 H       1  UNL1        0.1481
     17 C         139.3303  139.7076  165.2046 C.3     1  UNL1        0.0729
     18 C         139.9725  138.8677  164.1406 C.3     1  UNL1        0.0196
     19 C         138.4024  137.9524  162.2839 C.3     1  UNL1        0.0001
     20 C         139.2148  137.7289  163.5249 C.3     1  UNL1        0.0017
     21 C         137.9920  139.3198  165.7603 C.3     1  UNL1        0.0512
     22 C         137.8995  138.6721  167.1100 C.3     1  UNL1        0.1389
     23 O         136.8286  137.6580  167.3834 O.3     1  UNL1       -0.3819
     24 H         135.9598  138.0882  167.3499 H       1  UNL1        0.2104
@<TRIPOS>BOND
     1    19    20    1
     2    20    18    1
     3    17    18    1
     4    17    21    1
     5    21    22    1
     6    22    23    1
     7    17    15    1
     8    15     1    1
     9     1     2   ar
    10     2     3   ar
    11     3     4    1
    12     3     5   ar
    13     5     6   ar
    14     6     7   ar
    15     7     8   ar
    16     8     9   ar
    17     9    10   ar
    18    10    11    1
    19    10    12   ar
    20    12     1   ar
    21    12     6   ar
    22    23    24    1
    23    15    16    1
    24     4    13    1
    25     4    14    1
@<TRIPOS>MOLECULE
*****
 24 25 0 0 0
SMALL
GASTEIGER

@<TRIPOS>ATOM
      1 C         138.6311  141.3043  164.7751 C.ar    1  UNL1        0.1324
      2 N         138.2867  142.7267  164.4464 N.ar    1  UNL1       -0.1993
      3 C         137.7497  143.0741  163.0896 C.ar    1  UNL1        0.2148
      4 N         137.4053  144.4966  162.7610 N.pl3   1  UNL1       -0.3274
      5 N         137.5571  141.9991  162.0614 N.ar    1  UNL1       -0.2139
      6 C         137.9016  140.5766  162.3901 C.ar    1  UNL1        0.0865
      7 C         137.7090  139.5015  161.3619 C.ar    1  UNL1        0.0193
      8 C         138.0534  138.0791  161.6906 C.ar    1  UNL1        0.0012
      9 C         138.5903  137.7317  163.0474 C.ar    1  UNL1       -0.0041
     10 C         138.7829  138.8068  164.0756 C.ar    1  UNL1       -0.0177
     11 C         139.3199  138.4594  165.4324 C.3     1  UNL1        0.0312
     12 C         138.4385  140.2292  163.7469 C.ar    1  UNL1        0.0452
     13 H         137.5317  145.2022  163.4358 H       1  UNL1        0.1452
     14 H         137.0529  144.7247  161.8704 H       1  UNL1        0.1452
     15 N         139.1681  140.9570  166.1319 N.pl3   1  UNL1       -0.3195
     16 H         138.7319  140.2570  166.6696 H       1  UNL1        0.1481
     17 C         140.3697  141.6759  166.6696 C.3     1  UNL1        0.0729
     18 C         141.4931  142.0513  165.7493 C.3     1  UNL1        0.0196
     19 C         143.9356  142.9359  165.7029 C.3     1  UNL1        0.0001
     20 C         142.9127  141.9723  166.2275 C.3     1  UNL1        0.0017
     21 C         140.4480  142.0196  168.1276 C.3     1  UNL1        0.0512
     22 C         139.9313  141.0556  169.1542 C.3     1  UNL1        0.1389
     23 O         139.3445  139.7442  168.7231 O.3     1  UNL1       -0.3819
     24 H         138.5278  139.9037  168.2247 H       1  UNL1        0.2104
@<TRIPOS>BOND
     1    19    20    1
     2    20    18    1
     3    17    18    1
     4    17    21    1
     5    21    22    1
     6    22    23    1
     7    17    15    1
     8    15     1    1
     9     1     2   ar
    10     2     3   ar
    11     3     4    1
    12     3     5   ar
    13     5     6   ar
    14     6     7   ar
    15     7     8   ar
    16     8     9   ar
    17     9    10   ar
    18    10    11    1
    19    10    12   ar
    20    12     1   ar
    21    12     6   ar
    22    23    24    1
    23    15    16    1
    24     4    13    1
    25     4    14    1
@<TRIPOS>MOLECULE
*****
 24 25 0 0 0
SMALL
GASTEIGER

@<TRIPOS>ATOM
      1 C         140.3366  141.9442  164.4858 C.ar    1  UNL1        0.1324
      2 N         139.0137  142.3889  163.9363 N.ar    1  UNL1       -0.1993
      3 C         138.8690  143.7612  163.3481 C.ar    1  UNL1        0.2148
      4 N         137.5459  144.2059  162.7985 N.pl3   1  UNL1       -0.3274
      5 N         140.0472  144.6886  163.3094 N.ar    1  UNL1       -0.2139
      6 C         141.3702  144.2439  163.8589 C.ar    1  UNL1        0.0865
      7 C         142.5484  145.1714  163.8202 C.ar    1  UNL1        0.0193
      8 C         143.8713  144.7266  164.3697 C.ar    1  UNL1        0.0012
      9 C         144.0160  143.3544  164.9579 C.ar    1  UNL1       -0.0041
     10 C         142.8378  142.4269  164.9967 C.ar    1  UNL1       -0.0177
     11 C         142.9825  141.0547  165.5849 C.3     1  UNL1        0.0312
     12 C         141.5149  142.8717  164.4471 C.ar    1  UNL1        0.0452
     13 H         136.7726  143.5972  162.8239 H       1  UNL1        0.1452
     14 H         137.4510  145.1065  162.4124 H       1  UNL1        0.1452
     15 N         140.4813  140.5719  165.0741 N.pl3   1  UNL1       -0.3195
     16 H         141.1574  139.9520  164.7167 H       1  UNL1        0.1481
     17 C         139.5959  140.1443  166.2068 C.3     1  UNL1        0.0729
     18 C         139.8031  140.7164  167.5779 C.3     1  UNL1        0.0196
     19 C         140.5316  140.1041  169.9955 C.3     1  UNL1        0.0001
     20 C         140.7830  140.0775  168.5169 C.3     1  UNL1        0.0017
     21 C         138.5032  139.1446  165.9686 C.3     1  UNL1        0.0512
     22 C         137.6602  138.6676  167.1139 C.3     1  UNL1        0.1389
     23 O         137.0102  137.3171  167.0552 O.3     1  UNL1       -0.3819
     24 H         136.3448  137.3090  166.3494 H       1  UNL1        0.2104
@<TRIPOS>BOND
     1    19    20    1
     2    20    18    1
     3    17    18    1
     4    17    21    1
     5    21    22    1
     6    22    23    1
     7    17    15    1
     8    15     1    1
     9     1     2   ar
    10     2     3   ar
    11     3     4    1
    12     3     5   ar
    13     5     6   ar
    14     6     7   ar
    15     7     8   ar
    16     8     9   ar
    17     9    10   ar
    18    10    11    1
    19    10    12   ar
    20    12     1   ar
    21    12     6   ar
    22    23    24    1
    23    15    16    1
    24     4    13    1
    25     4    14    1
