@<TRIPOS>MOLECULE
*****
 39 43 0 0 0
SMALL
GASTEIGER

@<TRIPOS>ATOM
      1 C         140.1875  139.8247  159.3717 C.3     1  UNL1        0.1631
      2 N         141.1099  138.8380  158.7193 N.ar    1  UNL1       -0.3047
      3 C         142.5053  138.5101  159.1611 C.ar    1  UNL1        0.1441
      4 N         143.0567  137.4755  158.2254 N.ar    1  UNL1       -0.2267
      5 C         142.0020  137.1641  157.2052 C.ar    1  UNL1        0.1010
      6 C         141.9818  136.2225  156.0377 C.ar    1  UNL1        0.0526
      7 C         140.7584  136.1231  155.1755 C.ar    1  UNL1        0.1690
      8 F         140.7383  135.1814  154.0079 F       1  UNL1       -0.2017
      9 C         139.5552  136.9652  155.4807 C.ar    1  UNL1        0.1689
     10 F         138.3318  136.8657  154.6185 F       1  UNL1       -0.2017
     11 C         139.5754  137.9067  156.6482 C.ar    1  UNL1        0.0507
     12 C         140.7988  138.0062  157.5104 C.ar    1  UNL1        0.0816
     13 C         143.2233  139.1111  160.3330 C.ar    1  UNL1        0.0342
     14 C         143.6515  140.5481  160.2935 C.ar    1  UNL1        0.0039
     15 C         144.3695  141.1492  161.4654 C.ar    1  UNL1        0.0115
     16 C         144.6591  140.3133  162.6766 C.ar    1  UNL1        0.0577
     17 CL        145.3771  140.9144  163.8485 Cl      1  UNL1       -0.0822
     18 C         144.2309  138.8763  162.7161 C.ar    1  UNL1        0.0115
     19 C         143.5130  138.2752  161.5443 C.ar    1  UNL1        0.0039
     20 C         139.8701  141.1210  158.6871 C.3     1  UNL1        0.0297
     21 C         138.4794  141.3868  158.1919 C.3     1  UNL1        0.0024
     22 C         138.1620  142.6832  157.5073 C.3     1  UNL1        0.0001
     23 C         139.2353  143.7137  157.3179 C.3     1  UNL1        0.0000
     24 C         140.6261  143.4480  157.8131 C.3     1  UNL1        0.0001
     25 C         140.9434  142.1516  158.4977 C.3     1  UNL1        0.0024
     26 N         140.2834  139.9387  161.9656 N.am    1  UNL1       -0.2826
     27 C         139.5824  139.5149  160.7090 C.2     1  UNL1        0.2468
     28 O         138.2764  138.7815  160.7895 O.2     1  UNL1       -0.2727
     29 H         141.1405  140.4200  161.9128 H       1  UNL1        0.1549
     30 C         140.7001  137.2419  163.2123 C.3     1  UNL1        0.0323
     31 C         139.8866  138.2806  163.9261 C.ar    1  UNL1       -0.0083
     32 C         139.2815  137.9709  165.2632 C.ar    1  UNL1       -0.0019
     33 C         138.4680  139.0096  165.9770 C.ar    1  UNL1        0.0138
     34 C         138.2596  140.3579  165.3537 C.ar    1  UNL1        0.0024
     35 C         138.8648  140.6676  164.0164 C.ar    1  UNL1        0.0144
     36 C         139.6783  139.6289  163.3027 C.ar    1  UNL1        0.0463
     37 C         137.8629  138.6998  167.3141 C.2     1  UNL1        0.0729
     38 O         136.7588  137.6903  167.4220 O.co2   1  UNL1       -0.5446
     39 O         138.3620  139.3997  168.5434 O.co2   1  UNL1       -0.5446
@<TRIPOS>UNITY_ATOM_ATTR
38 1
charge -1
@<TRIPOS>BOND
     1    30    31    1
     2    31    32   ar
     3    32    33   ar
     4    33    37    1
     5    37    38   ar
     6    37    39   ar
     7    33    34   ar
     8    34    35   ar
     9    35    36   ar
    10    36    26    1
    11    26    27   am
    12    27    28    2
    13    27     1    1
    14     1    20    1
    15    20    21    1
    16    21    22    1
    17    22    23    1
    18    23    24    1
    19    24    25    1
    20     1     2    1
    21     2     3   ar
    22     3    13    1
    23    13    14   ar
    24    14    15   ar
    25    15    16   ar
    26    16    17    1
    27    16    18   ar
    28    18    19   ar
    29     3     4   ar
    30     4     5   ar
    31     5     6   ar
    32     6     7   ar
    33     7     8    1
    34     7     9   ar
    35     9    10    1
    36     9    11   ar
    37    11    12   ar
    38    36    31   ar
    39    25    20    1
    40    12     2   ar
    41    19    13   ar
    42    12     5   ar
    43    26    29    1
@<TRIPOS>MOLECULE
*****
 39 43 0 0 0
SMALL
GASTEIGER

@<TRIPOS>ATOM
      1 C         140.8681  141.7310  160.0018 C.3     1  UNL1        0.1631
      2 N         140.9338  143.1721  159.5909 N.ar    1  UNL1       -0.3047
      3 C         141.6346  144.2700  160.3349 C.ar    1  UNL1        0.1441
      4 N         141.4442  145.5447  159.5676 N.ar    1  UNL1       -0.2267
      5 C         140.6257  145.2347  158.3495 C.ar    1  UNL1        0.1010
      6 C         140.1268  146.0982  157.2290 C.ar    1  UNL1        0.0526
      7 C         139.3125  145.4954  156.1229 C.ar    1  UNL1        0.1690
      8 F         138.8136  146.3590  155.0024 F       1  UNL1       -0.2017
      9 C         138.9970  144.0290  156.1373 C.ar    1  UNL1        0.1689
     10 F         138.1827  143.4261  155.0311 F       1  UNL1       -0.2017
     11 C         139.4959  143.1655  157.2577 C.ar    1  UNL1        0.0507
     12 C         140.3102  143.7683  158.3638 C.ar    1  UNL1        0.0816
     13 C         142.3928  144.1194  161.6204 C.ar    1  UNL1        0.0342
     14 C         141.8449  144.7063  162.8873 C.ar    1  UNL1        0.0039
     15 C         142.6030  144.5558  164.1728 C.ar    1  UNL1        0.0115
     16 C         143.9090  143.8184  164.1913 C.ar    1  UNL1        0.0577
     17 CL        144.6672  143.6679  165.4769 Cl      1  UNL1       -0.0822
     18 C         144.4570  143.2315  162.9244 C.ar    1  UNL1        0.0115
     19 C         143.6989  143.3820  161.6389 C.ar    1  UNL1        0.0039
     20 C         141.4932  140.6756  159.1385 C.3     1  UNL1        0.0297
     21 C         142.8647  140.8876  158.5693 C.3     1  UNL1        0.0024
     22 C         143.4898  139.8322  157.7059 C.3     1  UNL1        0.0001
     23 C         142.7435  138.5647  157.4119 C.3     1  UNL1        0.0000
     24 C         141.3720  138.3527  157.9811 C.3     1  UNL1        0.0001
     25 C         140.7469  139.4081  158.8444 C.3     1  UNL1        0.0024
     26 N         140.8795  140.4756  162.2765 N.am    1  UNL1       -0.2826
     27 C         140.1772  141.3452  161.2762 C.2     1  UNL1        0.2468
     28 O         138.7840  141.8290  161.5501 O.2     1  UNL1       -0.2727
     29 H         141.7938  140.1581  162.0967 H       1  UNL1        0.1549
     30 C         139.5334  137.8042  162.5038 C.3     1  UNL1        0.0323
     31 C         139.5155  138.7542  163.6644 C.ar    1  UNL1       -0.0083
     32 C         138.8246  138.3686  164.9387 C.ar    1  UNL1       -0.0019
     33 C         138.8066  139.3186  166.0995 C.ar    1  UNL1        0.0138
     34 C         139.4797  140.6543  165.9858 C.ar    1  UNL1        0.0024
     35 C         140.1706  141.0400  164.7114 C.ar    1  UNL1        0.0144
     36 C         140.1885  140.0899  163.5508 C.ar    1  UNL1        0.0463
     37 C         138.1157  138.9329  167.3737 C.2     1  UNL1        0.0729
     38 O         138.5734  139.5112  168.6799 O.co2   1  UNL1       -0.5446
     39 O         136.9670  137.9688  167.3418 O.co2   1  UNL1       -0.5446
@<TRIPOS>UNITY_ATOM_ATTR
38 1
charge -1
@<TRIPOS>BOND
     1    30    31    1
     2    31    32   ar
     3    32    33   ar
     4    33    37    1
     5    37    38   ar
     6    37    39   ar
     7    33    34   ar
     8    34    35   ar
     9    35    36   ar
    10    36    26    1
    11    26    27   am
    12    27    28    2
    13    27     1    1
    14     1    20    1
    15    20    21    1
    16    21    22    1
    17    22    23    1
    18    23    24    1
    19    24    25    1
    20     1     2    1
    21     2     3   ar
    22     3    13    1
    23    13    14   ar
    24    14    15   ar
    25    15    16   ar
    26    16    17    1
    27    16    18   ar
    28    18    19   ar
    29     3     4   ar
    30     4     5   ar
    31     5     6   ar
    32     6     7   ar
    33     7     8    1
    34     7     9   ar
    35     9    10    1
    36     9    11   ar
    37    11    12   ar
    38    36    31   ar
    39    25    20    1
    40    12     2   ar
    41    19    13   ar
    42    12     5   ar
    43    26    29    1
@<TRIPOS>MOLECULE
*****
 39 43 0 0 0
SMALL
GASTEIGER

@<TRIPOS>ATOM
      1 C         141.5386  141.8912  164.0501 C.3     1  UNL1        0.1631
      2 N         141.9911  140.8928  165.0741 N.ar    1  UNL1       -0.3047
      3 C         142.4792  139.5023  164.7941 C.ar    1  UNL1        0.1441
      4 N         142.8247  138.8597  166.1047 N.ar    1  UNL1       -0.2267
      5 C         142.5500  139.8530  167.1946 C.ar    1  UNL1        0.1010
      6 C         142.7025  139.7756  168.6848 C.ar    1  UNL1        0.0526
      7 C         142.3398  140.9548  169.5381 C.ar    1  UNL1        0.1690
      8 F         142.4923  140.8774  171.0284 F       1  UNL1       -0.2017
      9 C         141.8245  142.2113  168.9011 C.ar    1  UNL1        0.1689
     10 F         141.4618  143.3905  169.7544 F       1  UNL1       -0.2017
     11 C         141.6721  142.2887  167.4109 C.ar    1  UNL1        0.0507
     12 C         142.0348  141.1095  166.5577 C.ar    1  UNL1        0.0816
     13 C         142.6006  138.8662  163.4411 C.ar    1  UNL1        0.0342
     14 C         141.3673  138.4639  162.6881 C.ar    1  UNL1        0.0039
     15 C         141.4887  137.8278  161.3351 C.ar    1  UNL1        0.0115
     16 C         142.8433  137.5941  160.7351 C.ar    1  UNL1        0.0577
     17 CL        142.9647  136.9579  159.3820 Cl      1  UNL1       -0.0822
     18 C         144.0767  137.9964  161.4881 C.ar    1  UNL1        0.0115
     19 C         143.9554  138.6324  162.8410 C.ar    1  UNL1        0.0039
     20 C         140.2957  142.6969  164.2863 C.3     1  UNL1        0.0297
     21 C         138.9583  142.0188  164.3252 C.3     1  UNL1        0.0024
     22 C         137.7154  142.8247  164.5614 C.3     1  UNL1        0.0001
     23 C         137.8098  144.3086  164.7587 C.3     1  UNL1        0.0000
     24 C         139.1472  144.9868  164.7197 C.3     1  UNL1        0.0001
     25 C         140.3901  144.1810  164.4836 C.3     1  UNL1        0.0024
     26 N         141.6936  141.8166  161.4577 N.am    1  UNL1       -0.2826
     27 C         142.3291  142.0838  162.7899 C.2     1  UNL1        0.2468
     28 O         143.7550  142.5437  162.8619 O.2     1  UNL1       -0.2727
     29 H         140.7577  141.5147  161.4104 H       1  UNL1        0.1549
     30 C         141.5912  144.4417  160.0091 C.3     1  UNL1        0.0323
     31 C         142.4329  143.3218  159.4733 C.ar    1  UNL1       -0.0083
     32 C         143.2235  143.5143  158.2132 C.ar    1  UNL1       -0.0019
     33 C         144.0653  142.3944  157.6773 C.ar    1  UNL1        0.0138
     34 C         144.1165  141.0818  158.4015 C.ar    1  UNL1        0.0024
     35 C         143.3259  140.8892  159.6617 C.ar    1  UNL1        0.0144
     36 C         142.4841  142.0092  160.1976 C.ar    1  UNL1        0.0463
     37 C         144.8558  142.5870  156.4172 C.2     1  UNL1        0.0729
     38 O         146.3029  142.1948  156.3722 O.co2   1  UNL1       -0.5446
     39 O         144.1992  143.1720  155.2020 O.co2   1  UNL1       -0.5446
@<TRIPOS>UNITY_ATOM_ATTR
38 1
charge -1
@<TRIPOS>BOND
     1    30    31    1
     2    31    32   ar
     3    32    33   ar
     4    33    37    1
     5    37    38   ar
     6    37    39   ar
     7    33    34   ar
     8    34    35   ar
     9    35    36   ar
    10    36    26    1
    11    26    27   am
    12    27    28    2
    13    27     1    1
    14     1    20    1
    15    20    21    1
    16    21    22    1
    17    22    23    1
    18    23    24    1
    19    24    25    1
    20     1     2    1
    21     2     3   ar
    22     3    13    1
    23    13    14   ar
    24    14    15   ar
    25    15    16   ar
    26    16    17    1
    27    16    18   ar
    28    18    19   ar
    29     3     4   ar
    30     4     5   ar
    31     5     6   ar
    32     6     7   ar
    33     7     8    1
    34     7     9   ar
    35     9    10    1
    36     9    11   ar
    37    11    12   ar
    38    36    31   ar
    39    25    20    1
    40    12     2   ar
    41    19    13   ar
    42    12     5   ar
    43    26    29    1
@<TRIPOS>MOLECULE
*****
 39 43 0 0 0
SMALL
GASTEIGER

@<TRIPOS>ATOM
      1 C         141.9208  141.8713  162.4810 C.3     1  UNL1        0.1631
      2 N         142.1840  140.8010  161.4636 N.ar    1  UNL1       -0.3047
      3 C         141.6728  139.3917  161.5142 C.ar    1  UNL1        0.1441
      4 N         142.1774  138.6717  160.2988 N.ar    1  UNL1       -0.2267
      5 C         143.0003  139.6361  159.4971 C.ar    1  UNL1        0.1010
      6 C         143.7465  139.4860  158.2046 C.ar    1  UNL1        0.0526
      7 C         144.4968  140.6519  157.6320 C.ar    1  UNL1        0.1690
      8 F         145.2431  140.5017  156.3394 F       1  UNL1       -0.2017
      9 C         144.5009  141.9678  158.3518 C.ar    1  UNL1        0.1689
     10 F         145.2512  143.1337  157.7792 F       1  UNL1       -0.2017
     11 C         143.7547  142.1180  159.6443 C.ar    1  UNL1        0.0507
     12 C         143.0044  140.9521  160.2170 C.ar    1  UNL1        0.0816
     13 C         140.8088  138.8053  162.5910 C.ar    1  UNL1        0.0342
     14 C         139.3632  139.1936  162.6873 C.ar    1  UNL1        0.0039
     15 C         138.4992  138.6072  163.7641 C.ar    1  UNL1        0.0115
     16 C         139.0808  137.6326  164.7447 C.ar    1  UNL1        0.0577
     17 CL        138.2167  137.0462  165.8216 Cl      1  UNL1       -0.0822
     18 C         140.5265  137.2443  164.6485 C.ar    1  UNL1        0.0115
     19 C         141.3905  137.8306  163.5717 C.ar    1  UNL1        0.0039
     20 C         141.3073  143.1732  162.0586 C.3     1  UNL1        0.0297
     21 C         140.5741  143.2684  160.7534 C.3     1  UNL1        0.0024
     22 C         139.9606  144.5704  160.3310 C.3     1  UNL1        0.0001
     23 C         140.0803  145.7772  161.2136 C.3     1  UNL1        0.0000
     24 C         140.8135  145.6822  162.5188 C.3     1  UNL1        0.0001
     25 C         141.4269  144.3802  162.9413 C.3     1  UNL1        0.0024
     26 N         141.2205  141.1682  164.8822 N.am    1  UNL1       -0.2826
     27 C         142.2712  141.6397  163.9211 C.2     1  UNL1        0.2468
     28 O         143.6723  141.8796  164.4000 O.2     1  UNL1       -0.2727
     29 H         140.3009  141.0107  164.5678 H       1  UNL1        0.1549
     30 C         140.3223  143.1188  166.9771 C.3     1  UNL1        0.0323
     31 C         141.1219  141.9119  167.3696 C.ar    1  UNL1       -0.0083
     32 C         141.4724  141.6802  168.8095 C.ar    1  UNL1       -0.0019
     33 C         142.2719  140.4732  169.2021 C.ar    1  UNL1        0.0138
     34 C         142.7210  139.4980  168.1546 C.ar    1  UNL1        0.0024
     35 C         142.3705  139.7296  166.7146 C.ar    1  UNL1        0.0144
     36 C         141.5709  140.9366  166.3221 C.ar    1  UNL1        0.0463
     37 C         142.6224  140.2416  170.6420 C.2     1  UNL1        0.0729
     38 O         141.8639  140.9539  171.7225 O.co2   1  UNL1       -0.5446
     39 O         143.7314  139.2977  171.0015 O.co2   1  UNL1       -0.5446
@<TRIPOS>UNITY_ATOM_ATTR
38 1
charge -1
@<TRIPOS>BOND
     1    30    31    1
     2    31    32   ar
     3    32    33   ar
     4    33    37    1
     5    37    38   ar
     6    37    39   ar
     7    33    34   ar
     8    34    35   ar
     9    35    36   ar
    10    36    26    1
    11    26    27   am
    12    27    28    2
    13    27     1    1
    14     1    20    1
    15    20    21    1
    16    21    22    1
    17    22    23    1
    18    23    24    1
    19    24    25    1
    20     1     2    1
    21     2     3   ar
    22     3    13    1
    23    13    14   ar
    24    14    15   ar
    25    15    16   ar
    26    16    17    1
    27    16    18   ar
    28    18    19   ar
    29     3     4   ar
    30     4     5   ar
    31     5     6   ar
    32     6     7   ar
    33     7     8    1
    34     7     9   ar
    35     9    10    1
    36     9    11   ar
    37    11    12   ar
    38    36    31   ar
    39    25    20    1
    40    12     2   ar
    41    19    13   ar
    42    12     5   ar
    43    26    29    1
@<TRIPOS>MOLECULE
*****
 39 43 0 0 0
SMALL
GASTEIGER

@<TRIPOS>ATOM
      1 C         140.3300  140.0665  159.9426 C.3     1  UNL1        0.1631
      2 N         141.2972  139.1859  159.2082 N.ar    1  UNL1       -0.3047
      3 C         142.7541  139.0207  159.5244 C.ar    1  UNL1        0.1441
      4 N         143.3345  138.0486  158.5403 N.ar    1  UNL1       -0.2267
      5 C         142.2363  137.6132  157.6161 C.ar    1  UNL1        0.1010
      6 C         142.2201  136.6675  156.4519 C.ar    1  UNL1        0.0526
      7 C         140.9448  136.4247  155.7005 C.ar    1  UNL1        0.1690
      8 F         140.9286  135.4789  154.5363 F       1  UNL1       -0.2017
      9 C         139.6856  137.1275  156.1133 C.ar    1  UNL1        0.1689
     10 F         138.4102  136.8847  155.3619 F       1  UNL1       -0.2017
     11 C         139.7017  138.0733  157.2775 C.ar    1  UNL1        0.0507
     12 C         140.9771  138.3161  158.0289 C.ar    1  UNL1        0.0816
     13 C         143.4997  139.7069  160.6303 C.ar    1  UNL1        0.0342
     14 C         143.9364  141.1327  160.4684 C.ar    1  UNL1        0.0039
     15 C         144.6820  141.8190  161.5743 C.ar    1  UNL1        0.0115
     16 C         144.9909  141.0794  162.8421 C.ar    1  UNL1        0.0577
     17 CL        145.7366  141.7657  163.9481 Cl      1  UNL1       -0.0822
     18 C         144.5543  139.6535  163.0041 C.ar    1  UNL1        0.0115
     19 C         143.8087  138.9673  161.8982 C.ar    1  UNL1        0.0039
     20 C         139.7876  139.6382  161.2738 C.3     1  UNL1        0.0297
     21 C         140.0046  140.4976  162.4839 C.3     1  UNL1        0.0024
     22 C         139.4621  140.0692  163.8151 C.3     1  UNL1        0.0001
     23 C         138.7026  138.7815  163.9363 C.3     1  UNL1        0.0000
     24 C         138.4855  137.9220  162.7263 C.3     1  UNL1        0.0001
     25 C         139.0280  138.3504  161.3951 C.3     1  UNL1        0.0024
     26 N         140.8456  142.1349  158.4573 N.am    1  UNL1       -0.2826
     27 C         139.9053  141.3755  159.3457 C.2     1  UNL1        0.2468
     28 O         138.5404  141.9251  159.6372 O.2     1  UNL1       -0.2727
     29 H         141.7415  141.7742  158.2660 H       1  UNL1        0.1549
     30 C         141.4497  144.7021  159.8874 C.3     1  UNL1        0.0323
     31 C         140.7229  144.7274  158.5755 C.ar    1  UNL1       -0.0083
     32 C         140.2981  146.0363  157.9786 C.ar    1  UNL1       -0.0019
     33 C         139.5713  146.0618  156.6666 C.ar    1  UNL1        0.0138
     34 C         139.2693  144.7782  155.9516 C.ar    1  UNL1        0.0024
     35 C         139.6941  143.4692  156.5485 C.ar    1  UNL1        0.0144
     36 C         140.4209  143.4439  157.8605 C.ar    1  UNL1        0.0463
     37 C         139.1466  147.3707  156.0698 C.2     1  UNL1        0.0729
     38 O         138.6116  148.4591  156.9524 O.co2   1  UNL1       -0.5446
     39 O         139.2569  147.5912  154.5902 O.co2   1  UNL1       -0.5446
@<TRIPOS>UNITY_ATOM_ATTR
38 1
charge -1
@<TRIPOS>BOND
     1    30    31    1
     2    31    32   ar
     3    32    33   ar
     4    33    37    1
     5    37    38   ar
     6    37    39   ar
     7    33    34   ar
     8    34    35   ar
     9    35    36   ar
    10    36    26    1
    11    26    27   am
    12    27    28    2
    13    27     1    1
    14     1    20    1
    15    20    21    1
    16    21    22    1
    17    22    23    1
    18    23    24    1
    19    24    25    1
    20     1     2    1
    21     2     3   ar
    22     3    13    1
    23    13    14   ar
    24    14    15   ar
    25    15    16   ar
    26    16    17    1
    27    16    18   ar
    28    18    19   ar
    29     3     4   ar
    30     4     5   ar
    31     5     6   ar
    32     6     7   ar
    33     7     8    1
    34     7     9   ar
    35     9    10    1
    36     9    11   ar
    37    11    12   ar
    38    36    31   ar
    39    25    20    1
    40    12     2   ar
    41    19    13   ar
    42    12     5   ar
    43    26    29    1
@<TRIPOS>MOLECULE
*****
 39 43 0 0 0
SMALL
GASTEIGER

@<TRIPOS>ATOM
      1 C         140.6468  141.1756  164.8858 C.3     1  UNL1        0.1631
      2 N         141.6835  141.6705  165.8504 N.ar    1  UNL1       -0.3047
      3 C         143.0489  142.1785  165.4932 C.ar    1  UNL1        0.1441
      4 N         143.7460  142.5663  166.7635 N.ar    1  UNL1       -0.2267
      5 C         142.8115  142.2978  167.9057 C.ar    1  UNL1        0.1010
      6 C         142.9566  142.4859  169.3867 C.ar    1  UNL1        0.0526
      7 C         141.8270  142.1204  170.3035 C.ar    1  UNL1        0.1690
      8 F         141.9721  142.3085  171.7846 F       1  UNL1       -0.2017
      9 C         140.5522  141.5668  169.7391 C.ar    1  UNL1        0.1689
     10 F         139.4226  141.2012  170.6559 F       1  UNL1       -0.2017
     11 C         140.4071  141.3786  168.2581 C.ar    1  UNL1        0.0507
     12 C         141.5368  141.7441  167.3414 C.ar    1  UNL1        0.0816
     13 C         143.6172  142.2809  164.1089 C.ar    1  UNL1        0.0342
     14 C         143.8144  143.6269  163.4768 C.ar    1  UNL1        0.0039
     15 C         144.3828  143.7293  162.0924 C.ar    1  UNL1        0.0115
     16 C         144.7540  142.4858  161.3402 C.ar    1  UNL1        0.0577
     17 CL        145.3224  142.5883  159.9558 Cl      1  UNL1       -0.0822
     18 C         144.5568  141.1399  161.9723 C.ar    1  UNL1        0.0115
     19 C         143.9884  141.0374  163.3566 C.ar    1  UNL1        0.0039
     20 C         139.9026  139.9049  165.1712 C.3     1  UNL1        0.0297
     21 C         138.6284  139.9432  165.9616 C.3     1  UNL1        0.0024
     22 C         137.8842  138.6725  166.2469 C.3     1  UNL1        0.0001
     23 C         138.4143  137.3633  165.7419 C.3     1  UNL1        0.0000
     24 C         139.6886  137.3249  164.9514 C.3     1  UNL1        0.0001
     25 C         140.4327  138.5957  164.6661 C.3     1  UNL1        0.0024
     26 N         140.6395  141.3462  162.2933 N.am    1  UNL1       -0.2826
     27 C         140.3542  141.9515  163.6358 C.2     1  UNL1        0.2468
     28 O         139.7763  143.3326  163.7283 O.2     1  UNL1       -0.2727
     29 H         141.0188  140.4397  162.2326 H       1  UNL1        0.1549
     30 C         138.0529  140.9205  160.8343 C.3     1  UNL1        0.0323
     31 C         139.0537  141.9093  160.3139 C.ar    1  UNL1       -0.0083
     32 C         138.7612  142.6853  159.0640 C.ar    1  UNL1       -0.0019
     33 C         139.7619  143.6741  158.5435 C.ar    1  UNL1        0.0138
     34 C         141.0552  143.8869  159.2730 C.ar    1  UNL1        0.0024
     35 C         141.3477  143.1109  160.5230 C.ar    1  UNL1        0.0144
     36 C         140.3469  142.1221  161.0434 C.ar    1  UNL1        0.0463
     37 C         139.4694  144.4500  157.2936 C.2     1  UNL1        0.0729
     38 O         140.0380  145.8265  157.1148 O.co2   1  UNL1       -0.5446
     39 O         138.6081  143.8493  156.2224 O.co2   1  UNL1       -0.5446
@<TRIPOS>UNITY_ATOM_ATTR
38 1
charge -1
@<TRIPOS>BOND
     1    30    31    1
     2    31    32   ar
     3    32    33   ar
     4    33    37    1
     5    37    38   ar
     6    37    39   ar
     7    33    34   ar
     8    34    35   ar
     9    35    36   ar
    10    36    26    1
    11    26    27   am
    12    27    28    2
    13    27     1    1
    14     1    20    1
    15    20    21    1
    16    21    22    1
    17    22    23    1
    18    23    24    1
    19    24    25    1
    20     1     2    1
    21     2     3   ar
    22     3    13    1
    23    13    14   ar
    24    14    15   ar
    25    15    16   ar
    26    16    17    1
    27    16    18   ar
    28    18    19   ar
    29     3     4   ar
    30     4     5   ar
    31     5     6   ar
    32     6     7   ar
    33     7     8    1
    34     7     9   ar
    35     9    10    1
    36     9    11   ar
    37    11    12   ar
    38    36    31   ar
    39    25    20    1
    40    12     2   ar
    41    19    13   ar
    42    12     5   ar
    43    26    29    1
@<TRIPOS>MOLECULE
*****
 39 43 0 0 0
SMALL
GASTEIGER

@<TRIPOS>ATOM
      1 C         139.7027  140.0027  159.1044 C.3     1  UNL1        0.1631
      2 N         139.3839  141.3088  158.4392 N.ar    1  UNL1       -0.3047
      3 C         140.0257  142.6309  158.7394 C.ar    1  UNL1        0.1441
      4 N         139.4058  143.6613  157.8428 N.ar    1  UNL1       -0.2267
      5 C         138.3809  142.9759  156.9884 C.ar    1  UNL1        0.1010
      6 C         137.4582  143.4880  155.9224 C.ar    1  UNL1        0.0526
      7 C         136.5219  142.5461  155.2251 C.ar    1  UNL1        0.1690
      8 F         135.5991  143.0583  154.1590 F       1  UNL1       -0.2017
      9 C         136.5083  141.0922  155.5937 C.ar    1  UNL1        0.1689
     10 F         135.5721  140.1503  154.8963 F       1  UNL1       -0.2017
     11 C         137.4310  140.5801  156.6597 C.ar    1  UNL1        0.0507
     12 C         138.3673  141.5220  157.3570 C.ar    1  UNL1        0.0816
     13 C         141.0990  142.8790  159.7575 C.ar    1  UNL1        0.0342
     14 C         140.7412  143.4332  161.1046 C.ar    1  UNL1        0.0039
     15 C         141.8145  143.6813  162.1227 C.ar    1  UNL1        0.0115
     16 C         143.2455  143.3752  161.7937 C.ar    1  UNL1        0.0577
     17 CL        144.3188  143.6233  162.8118 Cl      1  UNL1       -0.0822
     18 C         143.6033  142.8210  160.4465 C.ar    1  UNL1        0.0115
     19 C         142.5301  142.5729  159.4284 C.ar    1  UNL1        0.0039
     20 C         140.5441  138.9846  158.3935 C.3     1  UNL1        0.0297
     21 C         141.9989  138.8458  158.7315 C.3     1  UNL1        0.0024
     22 C         142.8402  137.8276  158.0206 C.3     1  UNL1        0.0001
     23 C         142.2269  136.9482  156.9716 C.3     1  UNL1        0.0000
     24 C         140.7720  137.0869  156.6336 C.3     1  UNL1        0.0001
     25 C         139.9307  138.1051  157.3445 C.3     1  UNL1        0.0024
     26 N         140.0661  139.9093  161.6753 N.am    1  UNL1       -0.2826
     27 C         139.1801  139.7147  160.4807 C.2     1  UNL1        0.2468
     28 O         137.7715  139.2321  160.6623 O.2     1  UNL1       -0.2727
     29 H         140.9906  140.2261  161.5562 H       1  UNL1        0.1549
     30 C         140.7211  137.3058  163.0144 C.3     1  UNL1        0.0323
     31 C         139.8709  138.3196  163.7210 C.ar    1  UNL1       -0.0083
     32 C         139.3482  138.0317  165.0972 C.ar    1  UNL1       -0.0019
     33 C         138.4979  139.0455  165.8039 C.ar    1  UNL1        0.0138
     34 C         138.1704  140.3472  165.1344 C.ar    1  UNL1        0.0024
     35 C         138.6932  140.6351  163.7581 C.ar    1  UNL1        0.0144
     36 C         139.5434  139.6213  163.0515 C.ar    1  UNL1        0.0463
     37 C         137.9753  138.7575  167.1801 C.2     1  UNL1        0.0729
     38 O         136.8571  137.7753  167.3674 O.co2   1  UNL1       -0.5446
     39 O         138.5708  139.4517  168.3689 O.co2   1  UNL1       -0.5446
@<TRIPOS>UNITY_ATOM_ATTR
38 1
charge -1
@<TRIPOS>BOND
     1    30    31    1
     2    31    32   ar
     3    32    33   ar
     4    33    37    1
     5    37    38   ar
     6    37    39   ar
     7    33    34   ar
     8    34    35   ar
     9    35    36   ar
    10    36    26    1
    11    26    27   am
    12    27    28    2
    13    27     1    1
    14     1    20    1
    15    20    21    1
    16    21    22    1
    17    22    23    1
    18    23    24    1
    19    24    25    1
    20     1     2    1
    21     2     3   ar
    22     3    13    1
    23    13    14   ar
    24    14    15   ar
    25    15    16   ar
    26    16    17    1
    27    16    18   ar
    28    18    19   ar
    29     3     4   ar
    30     4     5   ar
    31     5     6   ar
    32     6     7   ar
    33     7     8    1
    34     7     9   ar
    35     9    10    1
    36     9    11   ar
    37    11    12   ar
    38    36    31   ar
    39    25    20    1
    40    12     2   ar
    41    19    13   ar
    42    12     5   ar
    43    26    29    1
@<TRIPOS>MOLECULE
*****
 39 43 0 0 0
SMALL
GASTEIGER

@<TRIPOS>ATOM
      1 C         141.4783  141.1426  162.2745 C.3     1  UNL1        0.1631
      2 N         140.6472  139.9859  162.7447 N.ar    1  UNL1       -0.3047
      3 C         140.2751  138.7802  161.9336 C.ar    1  UNL1        0.1441
      4 N         139.4401  137.8809  162.7962 N.ar    1  UNL1       -0.2267
      5 C         139.2963  138.5308  164.1404 C.ar    1  UNL1        0.1010
      6 C         138.5823  138.1059  165.3893 C.ar    1  UNL1        0.0526
      7 C         138.6144  138.9821  166.6065 C.ar    1  UNL1        0.1690
      8 F         137.9004  138.5572  167.8554 F       1  UNL1       -0.2017
      9 C         139.3603  140.2830  166.5747 C.ar    1  UNL1        0.1689
     10 F         139.3924  141.1592  167.7918 F       1  UNL1       -0.2017
     11 C         140.0743  140.7079  165.3258 C.ar    1  UNL1        0.0507
     12 C         140.0422  139.8317  164.1086 C.ar    1  UNL1        0.0816
     13 C         140.6688  138.5197  160.5098 C.ar    1  UNL1        0.0342
     14 C         142.0980  138.2160  160.1705 C.ar    1  UNL1        0.0039
     15 C         142.4917  137.9555  158.7467 C.ar    1  UNL1        0.0115
     16 C         141.4563  137.9986  157.6624 C.ar    1  UNL1        0.0577
     17 CL        141.8501  137.7380  156.2386 Cl      1  UNL1       -0.0822
     18 C         140.0271  138.3023  158.0017 C.ar    1  UNL1        0.0115
     19 C         139.6333  138.5628  159.4254 C.ar    1  UNL1        0.0039
     20 C         142.8184  141.4046  162.8951 C.3     1  UNL1        0.0297
     21 C         143.0829  142.7097  163.5857 C.3     1  UNL1        0.0024
     22 C         144.4231  142.9716  164.2064 C.3     1  UNL1        0.0001
     23 C         145.4989  141.9287  164.1365 C.3     1  UNL1        0.0000
     24 C         145.2344  140.6236  163.4458 C.3     1  UNL1        0.0001
     25 C         143.8942  140.3616  162.8252 C.3     1  UNL1        0.0024
     26 N         141.9322  142.6778  160.2281 N.am    1  UNL1       -0.2826
     27 C         140.9692  142.0375  161.1834 C.2     1  UNL1        0.2468
     28 O         139.4972  142.2918  161.0477 O.2     1  UNL1       -0.2727
     29 H         142.8984  142.5109  160.3172 H       1  UNL1        0.1549
     30 C         141.6136  141.6135  157.4414 C.3     1  UNL1        0.0323
     31 C         141.2638  143.0405  157.7438 C.ar    1  UNL1       -0.0083
     32 C         140.7547  143.9353  156.6529 C.ar    1  UNL1       -0.0019
     33 C         140.4049  145.3623  156.9553 C.ar    1  UNL1        0.0138
     34 C         140.5642  145.8944  158.3487 C.ar    1  UNL1        0.0024
     35 C         141.0733  144.9995  159.4397 C.ar    1  UNL1        0.0144
     36 C         141.4231  143.5726  159.1372 C.ar    1  UNL1        0.0463
     37 C         139.8958  146.2570  155.8644 C.2     1  UNL1        0.0729
     38 O         140.3893  146.0815  154.4588 O.co2   1  UNL1       -0.5446
     39 O         138.8931  147.3273  156.1791 O.co2   1  UNL1       -0.5446
@<TRIPOS>UNITY_ATOM_ATTR
38 1
charge -1
@<TRIPOS>BOND
     1    30    31    1
     2    31    32   ar
     3    32    33   ar
     4    33    37    1
     5    37    38   ar
     6    37    39   ar
     7    33    34   ar
     8    34    35   ar
     9    35    36   ar
    10    36    26    1
    11    26    27   am
    12    27    28    2
    13    27     1    1
    14     1    20    1
    15    20    21    1
    16    21    22    1
    17    22    23    1
    18    23    24    1
    19    24    25    1
    20     1     2    1
    21     2     3   ar
    22     3    13    1
    23    13    14   ar
    24    14    15   ar
    25    15    16   ar
    26    16    17    1
    27    16    18   ar
    28    18    19   ar
    29     3     4   ar
    30     4     5   ar
    31     5     6   ar
    32     6     7   ar
    33     7     8    1
    34     7     9   ar
    35     9    10    1
    36     9    11   ar
    37    11    12   ar
    38    36    31   ar
    39    25    20    1
    40    12     2   ar
    41    19    13   ar
    42    12     5   ar
    43    26    29    1
@<TRIPOS>MOLECULE
*****
 39 43 0 0 0
SMALL
GASTEIGER

@<TRIPOS>ATOM
      1 C         139.9883  140.6866  164.5264 C.3     1  UNL1        0.1631
      2 N         141.2589  140.0326  164.0703 N.ar    1  UNL1       -0.3047
      3 C         142.5262  139.9185  164.8646 C.ar    1  UNL1        0.1441
      4 N         143.5358  139.1934  164.0250 N.ar    1  UNL1       -0.2267
      5 C         142.8924  138.8594  162.7118 C.ar    1  UNL1        0.1010
      6 C         143.4062  138.1500  161.4941 C.ar    1  UNL1        0.0526
      7 C         142.5128  137.9593  160.3043 C.ar    1  UNL1        0.1690
      8 F         143.0266  137.2499  159.0866 F       1  UNL1       -0.2017
      9 C         141.1056  138.4780  160.3323 C.ar    1  UNL1        0.1689
     10 F         140.2122  138.2873  159.1425 F       1  UNL1       -0.2017
     11 C         140.5918  139.1874  161.5500 C.ar    1  UNL1        0.0507
     12 C         141.4853  139.3781  162.7397 C.ar    1  UNL1        0.0816
     13 C         142.7453  140.4381  166.2545 C.ar    1  UNL1        0.0342
     14 C         142.6349  139.5105  167.4281 C.ar    1  UNL1        0.0039
     15 C         142.8541  140.0302  168.8181 C.ar    1  UNL1        0.0115
     16 C         143.1836  141.4774  169.0344 C.ar    1  UNL1        0.0577
     17 CL        143.4028  141.9970  170.4244 Cl      1  UNL1       -0.0822
     18 C         143.2940  142.4050  167.8608 C.ar    1  UNL1        0.0115
     19 C         143.0749  141.8854  166.4709 C.ar    1  UNL1        0.0039
     20 C         139.5415  141.9748  163.9014 C.3     1  UNL1        0.0297
     21 C         138.4363  141.9728  162.8873 C.3     1  UNL1        0.0024
     22 C         137.9895  143.2611  162.2623 C.3     1  UNL1        0.0001
     23 C         138.6478  144.5515  162.6515 C.3     1  UNL1        0.0000
     24 C         139.7531  144.5536  163.6656 C.3     1  UNL1        0.0001
     25 C         140.1999  143.2652  164.2906 C.3     1  UNL1        0.0024
     26 N         139.3796  140.4412  167.0403 N.am    1  UNL1       -0.2826
     27 C         139.1645  140.0521  165.6076 C.2     1  UNL1        0.2468
     28 O         138.1257  139.0288  165.2562 O.2     1  UNL1       -0.2727
     29 H         140.0614  141.1128  167.2710 H       1  UNL1        0.1549
     30 C         139.6481  141.3799  169.8770 C.3     1  UNL1        0.0323
     31 C         138.6901  140.2761  169.5397 C.ar    1  UNL1       -0.0083
     32 C         137.8662  139.6416  170.6208 C.ar    1  UNL1       -0.0019
     33 C         136.9081  138.5378  170.2836 C.ar    1  UNL1        0.0138
     34 C         136.7739  138.0684  168.8652 C.ar    1  UNL1        0.0024
     35 C         137.5978  138.7029  167.7841 C.ar    1  UNL1        0.0144
     36 C         138.5558  139.8067  168.1214 C.ar    1  UNL1        0.0463
     37 C         136.0843  137.9033  171.3647 C.2     1  UNL1        0.0729
     38 O         136.3797  136.5010  171.8075 O.co2   1  UNL1       -0.5446
     39 O         134.9651  138.6714  172.0031 O.co2   1  UNL1       -0.5446
@<TRIPOS>UNITY_ATOM_ATTR
38 1
charge -1
@<TRIPOS>BOND
     1    30    31    1
     2    31    32   ar
     3    32    33   ar
     4    33    37    1
     5    37    38   ar
     6    37    39   ar
     7    33    34   ar
     8    34    35   ar
     9    35    36   ar
    10    36    26    1
    11    26    27   am
    12    27    28    2
    13    27     1    1
    14     1    20    1
    15    20    21    1
    16    21    22    1
    17    22    23    1
    18    23    24    1
    19    24    25    1
    20     1     2    1
    21     2     3   ar
    22     3    13    1
    23    13    14   ar
    24    14    15   ar
    25    15    16   ar
    26    16    17    1
    27    16    18   ar
    28    18    19   ar
    29     3     4   ar
    30     4     5   ar
    31     5     6   ar
    32     6     7   ar
    33     7     8    1
    34     7     9   ar
    35     9    10    1
    36     9    11   ar
    37    11    12   ar
    38    36    31   ar
    39    25    20    1
    40    12     2   ar
    41    19    13   ar
    42    12     5   ar
    43    26    29    1
