@<TRIPOS>MOLECULE
*****
 36 39 0 0 0
SMALL
GASTEIGER

@<TRIPOS>ATOM
      1 N         141.8359  140.2366  167.5507 N.3     1  UNL1       -0.2653
      2 C         142.4677  139.1608  166.7180 C.3     1  UNL1        0.1036
      3 C         143.3946  139.5273  165.5970 C.3     1  UNL1        0.1470
      4 C         144.3215  139.8937  164.4760 C.3     1  UNL1        0.1035
      5 N         144.6166  141.3358  164.1878 N.3     1  UNL1       -0.2685
      6 C         143.9847  142.4116  165.0206 C.3     1  UNL1        0.1035
      7 C         143.0578  142.0452  166.1415 C.3     1  UNL1        0.1470
      8 C         142.1309  141.6788  167.2625 C.3     1  UNL1        0.1036
      9 O         143.6896  140.9694  165.3088 O.3     1  UNL1       -0.3530
     10 C         140.9089  139.8702  168.6717 C.3     1  UNL1        0.1202
     11 C         139.4380  140.1354  168.5457 C.3     1  UNL1        0.2226
     12 O         138.5672  139.1839  167.7799 O.3     1  UNL1       -0.4740
     13 C         138.7433  139.0937  163.2843 C.ar    1  UNL1        0.0686
     14 C         138.5009  140.3898  163.9996 C.ar    1  UNL1        0.0134
     15 C         138.4422  140.4198  165.4981 C.ar    1  UNL1        0.0376
     16 C         138.6259  139.1538  166.2814 C.ar    1  UNL1        0.1387
     17 C         138.8682  137.8578  165.5662 C.ar    1  UNL1        0.0376
     18 C         138.9270  137.8277  164.0676 C.ar    1  UNL1        0.0134
     19 N         138.8607  139.0336  160.2872 N.1     1  UNL1       -0.1908
     20 C         138.8020  139.0637  161.7857 C.1     1  UNL1        0.1004
     21 C         145.5434  141.7023  163.0668 C.3     1  UNL1        0.0737
     22 C         144.9887  142.2314  161.7775 C.3     1  UNL1        0.0362
     23 C         143.6401  141.7805  161.3001 C.3     1  UNL1        0.0929
     24 N         142.6209  142.7924  160.8673 N.3     1  UNL1       -0.1793
     25 H         142.1933  142.4331  160.0138 H       1  UNL1        0.1488
     26 S         141.4985  143.1678  161.7890 S.O2    1  UNL1        0.0624
     27 O         141.7270  144.6171  161.4767 O.2     1  UNL1       -0.1529
     28 O         141.2700  141.7186  162.1013 O.2     1  UNL1       -0.1529
     29 C         140.3762  143.5433  162.7106 C.ar    1  UNL1        0.1494
     30 C         140.6676  143.9174  164.1337 C.ar    1  UNL1        0.0245
     31 C         139.5453  144.2929  165.0553 C.ar    1  UNL1        0.0312
     32 C         138.1316  144.2944  164.5539 C.ar    1  UNL1        0.1425
     33 F         137.0093  144.6699  165.4755 F       1  UNL1       -0.2041
     34 C         137.8402  143.9203  163.1308 C.ar    1  UNL1        0.0606
     35 C         138.9625  143.5448  162.2092 C.ar    1  UNL1        0.1608
     36 F         138.6711  143.1708  160.7861 F       1  UNL1       -0.2027
@<TRIPOS>BOND
     1    19    20    3
     2    20    13    1
     3    13    14   ar
     4    14    15   ar
     5    15    16   ar
     6    16    12    1
     7    12    11    1
     8    11    10    1
     9    10     1    1
    10     1     2    1
    11     2     3    1
    12     3     4    1
    13     4     5    1
    14     5    21    1
    15    21    22    1
    16    22    23    1
    17    23    24    1
    18    24    26    1
    19    26    27    2
    20    26    28    2
    21    26    29    1
    22    29    30   ar
    23    30    31   ar
    24    31    32   ar
    25    32    33    1
    26    32    34   ar
    27    34    35   ar
    28    35    36    1
    29     5     6    1
    30     6     7    1
    31     7     8    1
    32     7     9    1
    33    16    17   ar
    34    17    18   ar
    35    18    13   ar
    36     8     1    1
    37     9     3    1
    38    35    29   ar
    39    24    25    1
@<TRIPOS>MOLECULE
*****
 36 39 0 0 0
SMALL
GASTEIGER

@<TRIPOS>ATOM
      1 N         138.3951  140.6426  165.0051 N.3     1  UNL1       -0.2653
      2 C         137.6677  140.9345  163.7262 C.3     1  UNL1        0.1036
      3 C         137.8967  142.2340  163.0129 C.3     1  UNL1        0.1470
      4 C         138.1258  143.5336  162.2996 C.3     1  UNL1        0.1035
      5 N         139.0824  144.5411  162.8651 N.3     1  UNL1       -0.2685
      6 C         139.8098  144.2491  164.1441 C.3     1  UNL1        0.1035
      7 C         139.5808  142.9496  164.8573 C.3     1  UNL1        0.1470
      8 C         139.3517  141.6501  165.5706 C.3     1  UNL1        0.1036
      9 O         138.8533  143.2416  163.5785 O.3     1  UNL1       -0.3530
     10 C         138.1661  139.3430  165.7184 C.3     1  UNL1        0.1202
     11 C         138.9938  138.1411  165.3717 C.3     1  UNL1        0.2226
     12 O         138.8149  137.4647  164.0448 O.3     1  UNL1       -0.4740
     13 C         141.6591  138.3434  160.6701 C.ar    1  UNL1        0.0686
     14 C         140.1843  138.5388  160.4781 C.ar    1  UNL1        0.0134
     15 C         139.2362  138.2459  161.6030 C.ar    1  UNL1        0.0376
     16 C         139.7630  137.7576  162.9199 C.ar    1  UNL1        0.1387
     17 C         141.2377  137.5622  163.1118 C.ar    1  UNL1        0.0376
     18 C         142.1858  137.8550  161.9869 C.ar    1  UNL1        0.0134
     19 N         143.5551  138.9291  158.4203 N.1     1  UNL1       -0.1908
     20 C         142.6071  138.6363  159.5452 C.1     1  UNL1        0.1004
     21 C         139.3114  145.8406  162.1518 C.3     1  UNL1        0.0737
     22 C         140.0497  145.8595  160.8462 C.3     1  UNL1        0.0362
     23 C         141.1571  144.8791  160.5965 C.3     1  UNL1        0.0929
     24 N         142.4442  144.9915  161.3584 N.3     1  UNL1       -0.1793
     25 H         142.2996  145.6998  162.0780 H       1  UNL1        0.1488
     26 S         143.0169  143.7872  162.0452 S.O2    1  UNL1        0.0624
     27 O         141.8162  142.9849  161.6396 O.2     1  UNL1       -0.1529
     28 O         144.2177  144.5894  162.4509 O.2     1  UNL1       -0.1529
     29 C         143.5895  142.5829  162.7320 C.ar    1  UNL1        0.1494
     30 C         144.2210  141.4882  161.9239 C.ar    1  UNL1        0.0245
     31 C         144.7937  140.2838  162.6107 C.ar    1  UNL1        0.0312
     32 C         144.7348  140.1741  164.1055 C.ar    1  UNL1        0.1425
     33 F         145.3074  138.9698  164.7923 F       1  UNL1       -0.2041
     34 C         144.1033  141.2689  164.9136 C.ar    1  UNL1        0.0606
     35 C         143.5307  142.4732  164.2268 C.ar    1  UNL1        0.1608
     36 F         142.8992  143.5678  165.0349 F       1  UNL1       -0.2027
@<TRIPOS>BOND
     1    19    20    3
     2    20    13    1
     3    13    14   ar
     4    14    15   ar
     5    15    16   ar
     6    16    12    1
     7    12    11    1
     8    11    10    1
     9    10     1    1
    10     1     2    1
    11     2     3    1
    12     3     4    1
    13     4     5    1
    14     5    21    1
    15    21    22    1
    16    22    23    1
    17    23    24    1
    18    24    26    1
    19    26    27    2
    20    26    28    2
    21    26    29    1
    22    29    30   ar
    23    30    31   ar
    24    31    32   ar
    25    32    33    1
    26    32    34   ar
    27    34    35   ar
    28    35    36    1
    29     5     6    1
    30     6     7    1
    31     7     8    1
    32     7     9    1
    33    16    17   ar
    34    17    18   ar
    35    18    13   ar
    36     8     1    1
    37     9     3    1
    38    35    29   ar
    39    24    25    1
@<TRIPOS>MOLECULE
*****
 36 39 0 0 0
SMALL
GASTEIGER

@<TRIPOS>ATOM
      1 N         144.2649  141.8187  164.2893 N.3     1  UNL1       -0.2653
      2 C         144.0939  140.3350  164.4285 C.3     1  UNL1        0.1036
      3 C         143.5020  139.7628  165.6823 C.3     1  UNL1        0.1470
      4 C         142.9100  139.1904  166.9362 C.3     1  UNL1        0.1035
      5 N         142.4892  140.1018  168.0508 N.3     1  UNL1       -0.2685
      6 C         142.6602  141.5856  167.9114 C.3     1  UNL1        0.1035
      7 C         143.2521  142.1578  166.6576 C.3     1  UNL1        0.1470
      8 C         143.8441  142.7301  165.4038 C.3     1  UNL1        0.1036
      9 O         143.0811  140.6742  166.7969 O.3     1  UNL1       -0.3530
     10 C         144.8569  142.3911  163.0354 C.3     1  UNL1        0.1202
     11 C         144.2580  142.0549  161.7019 C.3     1  UNL1        0.2226
     12 O         143.0219  142.7646  161.2345 O.3     1  UNL1       -0.4740
     13 C         140.0744  144.3633  164.2355 C.ar    1  UNL1        0.0686
     14 C         141.1467  145.2578  163.6876 C.ar    1  UNL1        0.0134
     15 C         142.1292  144.7249  162.6873 C.ar    1  UNL1        0.0376
     16 C         142.0394  143.2975  162.2348 C.ar    1  UNL1        0.1387
     17 C         140.9672  142.4031  162.7827 C.ar    1  UNL1        0.0376
     18 C         139.9846  142.9360  163.7831 C.ar    1  UNL1        0.0134
     19 N         138.1094  145.4291  166.2362 N.1     1  UNL1       -0.1908
     20 C         139.0919  144.8962  165.2358 C.1     1  UNL1        0.1004
     21 C         141.8972  139.5296  169.3046 C.3     1  UNL1        0.0737
     22 C         140.5251  139.9466  169.7444 C.3     1  UNL1        0.0362
     23 C         139.5229  140.4151  168.7315 C.3     1  UNL1        0.0929
     24 N         138.5742  139.4357  168.1065 N.3     1  UNL1       -0.1793
     25 H         137.6357  139.7062  168.4006 H       1  UNL1        0.1488
     26 S         138.5324  139.2791  166.6153 S.O2    1  UNL1        0.0624
     27 O         137.4443  138.2559  166.7533 O.2     1  UNL1       -0.1529
     28 O         139.6205  140.3023  166.4773 O.2     1  UNL1       -0.1529
     29 C         138.4905  139.1225  165.1241 C.ar    1  UNL1        0.1494
     30 C         137.9066  140.2100  164.2719 C.ar    1  UNL1        0.0245
     31 C         137.8648  140.0534  162.7806 C.ar    1  UNL1        0.0312
     32 C         138.4068  138.8093  162.1416 C.ar    1  UNL1        0.1425
     33 F         138.3650  138.6527  160.6504 F       1  UNL1       -0.2041
     34 C         138.9908  137.7217  162.9939 C.ar    1  UNL1        0.0606
     35 C         139.0326  137.8784  164.4851 C.ar    1  UNL1        0.1608
     36 F         139.6165  136.7909  165.3373 F       1  UNL1       -0.2027
@<TRIPOS>BOND
     1    19    20    3
     2    20    13    1
     3    13    14   ar
     4    14    15   ar
     5    15    16   ar
     6    16    12    1
     7    12    11    1
     8    11    10    1
     9    10     1    1
    10     1     2    1
    11     2     3    1
    12     3     4    1
    13     4     5    1
    14     5    21    1
    15    21    22    1
    16    22    23    1
    17    23    24    1
    18    24    26    1
    19    26    27    2
    20    26    28    2
    21    26    29    1
    22    29    30   ar
    23    30    31   ar
    24    31    32   ar
    25    32    33    1
    26    32    34   ar
    27    34    35   ar
    28    35    36    1
    29     5     6    1
    30     6     7    1
    31     7     8    1
    32     7     9    1
    33    16    17   ar
    34    17    18   ar
    35    18    13   ar
    36     8     1    1
    37     9     3    1
    38    35    29   ar
    39    24    25    1
@<TRIPOS>MOLECULE
*****
 36 39 0 0 0
SMALL
GASTEIGER

@<TRIPOS>ATOM
      1 N         139.4966  137.8175  163.8976 N.3     1  UNL1       -0.2653
      2 C         138.6118  138.2141  162.7531 C.3     1  UNL1        0.1036
      3 C         139.1963  138.4071  161.3853 C.3     1  UNL1        0.1470
      4 C         139.7808  138.6002  160.0173 C.3     1  UNL1        0.1035
      5 N         141.2501  138.3967  159.7940 N.3     1  UNL1       -0.2685
      6 C         142.1348  138.0001  160.9385 C.3     1  UNL1        0.1035
      7 C         141.5503  137.8071  162.3064 C.3     1  UNL1        0.1470
      8 C         140.9658  137.6140  163.6742 C.3     1  UNL1        0.1036
      9 O         140.6656  138.2036  161.1619 O.3     1  UNL1       -0.3530
     10 C         138.9121  137.6245  165.2655 C.3     1  UNL1        0.1202
     11 C         138.2355  138.7688  165.9604 C.3     1  UNL1        0.2226
     12 O         139.0244  139.9857  166.3435 O.3     1  UNL1       -0.4740
     13 C         139.1098  143.5629  163.6147 C.ar    1  UNL1        0.0686
     14 C         140.2383  143.3240  164.5737 C.ar    1  UNL1        0.0134
     15 C         140.2098  142.1316  165.4833 C.ar    1  UNL1        0.0376
     16 C         139.0529  141.1781  165.4339 C.ar    1  UNL1        0.1387
     17 C         137.9245  141.4170  164.4750 C.ar    1  UNL1        0.0376
     18 C         137.9529  142.6094  163.5654 C.ar    1  UNL1        0.0134
     19 N         139.1668  145.9476  161.7955 N.1     1  UNL1       -0.1908
     20 C         139.1383  144.7552  162.7051 C.1     1  UNL1        0.1004
     21 C         141.8345  138.5897  158.4261 C.3     1  UNL1        0.0737
     22 C         143.1186  139.3471  158.2592 C.3     1  UNL1        0.0362
     23 C         143.1501  140.8293  158.4870 C.3     1  UNL1        0.0929
     24 N         142.2311  141.4528  159.4953 N.3     1  UNL1       -0.1793
     25 H         141.5308  140.7493  159.7300 H       1  UNL1        0.1488
     26 S         142.7799  141.9673  160.7931 S.O2    1  UNL1        0.0624
     27 O         141.5512  141.4835  161.5045 O.2     1  UNL1       -0.1529
     28 O         144.0086  142.4512  160.0817 O.2     1  UNL1       -0.1529
     29 C         143.3286  142.4819  162.0908 C.ar    1  UNL1        0.1494
     30 C         144.1055  141.5680  162.9915 C.ar    1  UNL1        0.0245
     31 C         144.6542  142.0825  164.2893 C.ar    1  UNL1        0.0312
     32 C         144.4261  143.5109  164.6863 C.ar    1  UNL1        0.1425
     33 F         144.9748  144.0254  165.9841 F       1  UNL1       -0.2041
     34 C         143.6492  144.4248  163.7856 C.ar    1  UNL1        0.0606
     35 C         143.1005  143.9103  162.4878 C.ar    1  UNL1        0.1608
     36 F         142.3237  144.8242  161.5871 F       1  UNL1       -0.2027
@<TRIPOS>BOND
     1    19    20    3
     2    20    13    1
     3    13    14   ar
     4    14    15   ar
     5    15    16   ar
     6    16    12    1
     7    12    11    1
     8    11    10    1
     9    10     1    1
    10     1     2    1
    11     2     3    1
    12     3     4    1
    13     4     5    1
    14     5    21    1
    15    21    22    1
    16    22    23    1
    17    23    24    1
    18    24    26    1
    19    26    27    2
    20    26    28    2
    21    26    29    1
    22    29    30   ar
    23    30    31   ar
    24    31    32   ar
    25    32    33    1
    26    32    34   ar
    27    34    35   ar
    28    35    36    1
    29     5     6    1
    30     6     7    1
    31     7     8    1
    32     7     9    1
    33    16    17   ar
    34    17    18   ar
    35    18    13   ar
    36     8     1    1
    37     9     3    1
    38    35    29   ar
    39    24    25    1
@<TRIPOS>MOLECULE
*****
 36 39 0 0 0
SMALL
GASTEIGER

@<TRIPOS>ATOM
      1 N         141.0220  138.4079  161.1983 N.3     1  UNL1       -0.2653
      2 C         139.8422  139.3266  161.3160 C.3     1  UNL1        0.1036
      3 C         139.1688  139.5163  162.6429 C.3     1  UNL1        0.1470
      4 C         138.4954  139.7060  163.9698 C.3     1  UNL1        0.1035
      5 N         139.0018  138.9769  165.1789 N.3     1  UNL1       -0.2685
      6 C         140.1817  138.0580  165.0611 C.3     1  UNL1        0.1035
      7 C         140.8550  137.8684  163.7342 C.3     1  UNL1        0.1470
      8 C         141.5284  137.6787  162.4074 C.3     1  UNL1        0.1036
      9 O         139.6752  138.7872  163.8520 O.3     1  UNL1       -0.3530
     10 C         141.6954  138.2182  159.8714 C.3     1  UNL1        0.1202
     11 C         142.8766  139.0656  159.5018 C.3     1  UNL1        0.2226
     12 O         144.1192  139.0271  160.3412 O.3     1  UNL1       -0.4740
     13 C         144.6798  142.0040  163.6689 C.ar    1  UNL1        0.0686
     14 C         144.7132  140.5337  163.9643 C.ar    1  UNL1        0.0134
     15 C         144.5263  139.5414  162.8551 C.ar    1  UNL1        0.0376
     16 C         144.3061  140.0194  161.4504 C.ar    1  UNL1        0.1387
     17 C         144.2727  141.4896  161.1550 C.ar    1  UNL1        0.0376
     18 C         144.4595  142.4819  162.2642 C.ar    1  UNL1        0.0134
     19 N         145.0535  143.9886  165.8873 N.1     1  UNL1       -0.1908
     20 C         144.8667  142.9963  164.7781 C.1     1  UNL1        0.1004
     21 C         138.3285  139.1665  166.5057 C.3     1  UNL1        0.0737
     22 C         139.1313  139.5874  167.7009 C.3     1  UNL1        0.0362
     23 C         139.8394  140.9097  167.7009 C.3     1  UNL1        0.0929
     24 N         140.8854  141.2003  166.6659 N.3     1  UNL1       -0.1793
     25 H         141.0163  140.3421  166.1305 H       1  UNL1        0.1488
     26 S         140.6705  142.3025  165.6713 S.O2    1  UNL1        0.0624
     27 O         139.9901  143.1225  166.7271 O.2     1  UNL1       -0.1529
     28 O         141.3510  141.4826  164.6156 O.2     1  UNL1       -0.1529
     29 C         140.4557  143.4047  164.6769 C.ar    1  UNL1        0.1494
     30 C         141.6191  144.2240  164.2024 C.ar    1  UNL1        0.0245
     31 C         141.4042  145.3263  163.2079 C.ar    1  UNL1        0.0312
     32 C         140.0260  145.6091  162.6879 C.ar    1  UNL1        0.1425
     33 F         139.8111  146.7113  161.6934 F       1  UNL1       -0.2041
     34 C         138.8625  144.7898  163.1624 C.ar    1  UNL1        0.0606
     35 C         139.0774  143.6876  164.1569 C.ar    1  UNL1        0.1608
     36 F         137.9140  142.8683  164.6313 F       1  UNL1       -0.2027
@<TRIPOS>BOND
     1    19    20    3
     2    20    13    1
     3    13    14   ar
     4    14    15   ar
     5    15    16   ar
     6    16    12    1
     7    12    11    1
     8    11    10    1
     9    10     1    1
    10     1     2    1
    11     2     3    1
    12     3     4    1
    13     4     5    1
    14     5    21    1
    15    21    22    1
    16    22    23    1
    17    23    24    1
    18    24    26    1
    19    26    27    2
    20    26    28    2
    21    26    29    1
    22    29    30   ar
    23    30    31   ar
    24    31    32   ar
    25    32    33    1
    26    32    34   ar
    27    34    35   ar
    28    35    36    1
    29     5     6    1
    30     6     7    1
    31     7     8    1
    32     7     9    1
    33    16    17   ar
    34    17    18   ar
    35    18    13   ar
    36     8     1    1
    37     9     3    1
    38    35    29   ar
    39    24    25    1
@<TRIPOS>MOLECULE
*****
 36 39 0 0 0
SMALL
GASTEIGER

@<TRIPOS>ATOM
      1 N         139.7662  137.9905  163.8731 N.3     1  UNL1       -0.2653
      2 C         141.2467  137.7648  163.7888 C.3     1  UNL1        0.1036
      3 C         141.9432  137.8451  162.4628 C.3     1  UNL1        0.1470
      4 C         142.6399  137.9254  161.1367 C.3     1  UNL1        0.1035
      5 N         141.8559  138.2315  159.8951 N.3     1  UNL1       -0.2685
      6 C         140.3753  138.4572  159.9795 C.3     1  UNL1        0.1035
      7 C         139.6788  138.3769  161.3055 C.3     1  UNL1        0.1470
      8 C         138.9823  138.2966  162.6315 C.3     1  UNL1        0.1036
      9 O         141.1593  138.1512  161.2211 O.3     1  UNL1       -0.3530
     10 C         139.0696  137.9102  165.1992 C.3     1  UNL1        0.1202
     11 C         138.2335  139.0598  165.6780 C.3     1  UNL1        0.2226
     12 O         138.8934  140.3204  166.1530 O.3     1  UNL1       -0.4740
     13 C         139.1138  143.9044  163.4407 C.ar    1  UNL1        0.0686
     14 C         138.1396  142.8017  163.1488 C.ar    1  UNL1        0.0134
     15 C         138.0662  141.6071  164.0529 C.ar    1  UNL1        0.0376
     16 C         138.9668  141.5151  165.2489 C.ar    1  UNL1        0.1387
     17 C         139.9410  142.6177  165.5408 C.ar    1  UNL1        0.0376
     18 C         140.0145  143.8124  164.6366 C.ar    1  UNL1        0.0134
     19 N         139.2608  146.2936  161.6325 N.1     1  UNL1       -0.1908
     20 C         139.1873  145.0990  162.5366 C.1     1  UNL1        0.1004
     21 C         142.5524  138.3118  158.5691 C.3     1  UNL1        0.0737
     22 C         142.7167  139.6378  157.8873 C.3     1  UNL1        0.0362
     23 C         143.1786  140.8313  158.6696 C.3     1  UNL1        0.0929
     24 N         142.2814  141.4426  159.7047 N.3     1  UNL1       -0.1793
     25 H         141.6036  140.7268  159.9666 H       1  UNL1        0.1488
     26 S         142.8627  141.9759  160.9805 S.O2    1  UNL1        0.0624
     27 O         144.0334  142.5225  160.2186 O.2     1  UNL1       -0.1529
     28 O         141.6920  141.4294  161.7425 O.2     1  UNL1       -0.1529
     29 C         143.4440  142.5093  162.2563 C.ar    1  UNL1        0.1494
     30 C         143.0679  143.8796  162.7365 C.ar    1  UNL1        0.0245
     31 C         143.6492  144.4130  164.0123 C.ar    1  UNL1        0.0312
     32 C         144.6066  143.5761  164.8078 C.ar    1  UNL1        0.1425
     33 F         145.1879  144.1094  166.0836 F       1  UNL1       -0.2041
     34 C         144.9827  142.2057  164.3275 C.ar    1  UNL1        0.0606
     35 C         144.4014  141.6723  163.0518 C.ar    1  UNL1        0.1608
     36 F         144.7776  140.3020  162.5715 F       1  UNL1       -0.2027
@<TRIPOS>BOND
     1    19    20    3
     2    20    13    1
     3    13    14   ar
     4    14    15   ar
     5    15    16   ar
     6    16    12    1
     7    12    11    1
     8    11    10    1
     9    10     1    1
    10     1     2    1
    11     2     3    1
    12     3     4    1
    13     4     5    1
    14     5    21    1
    15    21    22    1
    16    22    23    1
    17    23    24    1
    18    24    26    1
    19    26    27    2
    20    26    28    2
    21    26    29    1
    22    29    30   ar
    23    30    31   ar
    24    31    32   ar
    25    32    33    1
    26    32    34   ar
    27    34    35   ar
    28    35    36    1
    29     5     6    1
    30     6     7    1
    31     7     8    1
    32     7     9    1
    33    16    17   ar
    34    17    18   ar
    35    18    13   ar
    36     8     1    1
    37     9     3    1
    38    35    29   ar
    39    24    25    1
@<TRIPOS>MOLECULE
*****
 36 39 0 0 0
SMALL
GASTEIGER

@<TRIPOS>ATOM
      1 N         139.3597  137.6122  163.9890 N.3     1  UNL1       -0.2653
      2 C         138.5057  138.1512  162.8799 C.3     1  UNL1        0.1036
      3 C         139.1210  138.4810  161.5523 C.3     1  UNL1        0.1470
      4 C         139.7362  138.8108  160.2245 C.3     1  UNL1        0.1035
      5 N         141.2053  138.6015  160.0060 N.3     1  UNL1       -0.2685
      6 C         142.0593  138.0624  161.1152 C.3     1  UNL1        0.1035
      7 C         141.4441  137.7327  162.4428 C.3     1  UNL1        0.1470
      8 C         140.8288  137.4029  163.7705 C.3     1  UNL1        0.1036
      9 O         140.5901  138.2717  161.3337 O.3     1  UNL1       -0.3530
     10 C         138.7445  137.2824  165.3168 C.3     1  UNL1        0.1202
     11 C         138.1934  138.3777  166.1808 C.3     1  UNL1        0.2226
     12 O         138.5581  139.8063  165.9046 O.3     1  UNL1       -0.4740
     13 C         141.1727  142.0597  168.7918 C.ar    1  UNL1        0.0686
     14 C         141.0788  142.5030  167.3618 C.ar    1  UNL1        0.0134
     15 C         140.2073  141.7519  166.3994 C.ar    1  UNL1        0.0376
     16 C         139.4296  140.5574  166.8669 C.ar    1  UNL1        0.1387
     17 C         139.5235  140.1141  168.2968 C.ar    1  UNL1        0.0376
     18 C         140.3951  140.8652  169.2593 C.ar    1  UNL1        0.0134
     19 N         142.9158  143.5619  170.7166 N.1     1  UNL1       -0.1908
     20 C         142.0442  142.8108  169.7542 C.1     1  UNL1        0.1004
     21 C         141.8206  138.9312  158.6783 C.3     1  UNL1        0.0737
     22 C         142.3528  140.3097  158.4199 C.3     1  UNL1        0.0362
     23 C         141.8337  141.4743  159.2099 C.3     1  UNL1        0.0929
     24 N         142.1382  141.5826  160.6746 N.3     1  UNL1       -0.1793
     25 H         142.9914  142.1353  160.7579 H       1  UNL1        0.1488
     26 S         141.1338  142.1933  161.6064 S.O2    1  UNL1        0.0624
     27 O         141.5511  141.2363  162.6834 O.2     1  UNL1       -0.1529
     28 O         140.7166  143.1504  160.5294 O.2     1  UNL1       -0.1529
     29 C         140.1295  142.8041  162.5382 C.ar    1  UNL1        0.1494
     30 C         138.8075  142.1315  162.7613 C.ar    1  UNL1        0.0245
     31 C         137.8031  142.7422  163.6932 C.ar    1  UNL1        0.0312
     32 C         138.1208  144.0255  164.4019 C.ar    1  UNL1        0.1425
     33 F         137.1165  144.6363  165.3337 F       1  UNL1       -0.2041
     34 C         139.4429  144.6981  164.1787 C.ar    1  UNL1        0.0606
     35 C         140.4473  144.0873  163.2469 C.ar    1  UNL1        0.1608
     36 F         141.7693  144.7599  163.0238 F       1  UNL1       -0.2027
@<TRIPOS>BOND
     1    19    20    3
     2    20    13    1
     3    13    14   ar
     4    14    15   ar
     5    15    16   ar
     6    16    12    1
     7    12    11    1
     8    11    10    1
     9    10     1    1
    10     1     2    1
    11     2     3    1
    12     3     4    1
    13     4     5    1
    14     5    21    1
    15    21    22    1
    16    22    23    1
    17    23    24    1
    18    24    26    1
    19    26    27    2
    20    26    28    2
    21    26    29    1
    22    29    30   ar
    23    30    31   ar
    24    31    32   ar
    25    32    33    1
    26    32    34   ar
    27    34    35   ar
    28    35    36    1
    29     5     6    1
    30     6     7    1
    31     7     8    1
    32     7     9    1
    33    16    17   ar
    34    17    18   ar
    35    18    13   ar
    36     8     1    1
    37     9     3    1
    38    35    29   ar
    39    24    25    1
@<TRIPOS>MOLECULE
*****
 36 39 0 0 0
SMALL
GASTEIGER

@<TRIPOS>ATOM
      1 N         142.9668  144.0106  163.2994 N.3     1  UNL1       -0.2653
      2 C         141.5146  144.3088  163.5280 C.3     1  UNL1        0.1036
      3 C         140.5114  144.0217  162.4505 C.3     1  UNL1        0.1470
      4 C         139.5081  143.7345  161.3729 C.3     1  UNL1        0.1035
      5 N         139.9571  143.1493  160.0668 N.3     1  UNL1       -0.2685
      6 C         141.4094  142.8511  159.8383 C.3     1  UNL1        0.1035
      7 C         142.4125  143.1382  160.9158 C.3     1  UNL1        0.1470
      8 C         143.4157  143.4254  161.9933 C.3     1  UNL1        0.1036
      9 O         140.9604  143.4364  161.1444 O.3     1  UNL1       -0.3530
     10 C         143.9701  144.2977  164.3770 C.3     1  UNL1        0.1202
     11 C         144.3085  143.2419  165.3872 C.3     1  UNL1        0.2226
     12 O         143.6504  141.8959  165.3146 O.3     1  UNL1       -0.4740
     13 C         140.4854  140.7744  168.3105 C.ar    1  UNL1        0.0686
     14 C         141.5491  139.7848  167.9371 C.ar    1  UNL1        0.0134
     15 C         142.6040  140.1586  166.9385 C.ar    1  UNL1        0.0376
     16 C         142.5954  141.5221  166.3132 C.ar    1  UNL1        0.1387
     17 C         141.5318  142.5117  166.6866 C.ar    1  UNL1        0.0376
     18 C         140.4768  142.1378  167.6852 C.ar    1  UNL1        0.0134
     19 N         138.3755  140.0267  170.3077 N.1     1  UNL1       -0.1908
     20 C         139.4304  140.4006  169.3091 C.1     1  UNL1        0.1004
     21 C         138.9539  142.8621  158.9893 C.3     1  UNL1        0.0737
     22 C         138.7997  141.4668  158.4606 C.3     1  UNL1        0.0362
     23 C         138.5278  140.3330  159.4043 C.3     1  UNL1        0.0929
     24 N         139.6013  139.8626  160.3404 N.3     1  UNL1       -0.1793
     25 H         140.3186  140.5877  160.3539 H       1  UNL1        0.1488
     26 S         139.2681  139.5564  161.7705 S.O2    1  UNL1        0.0624
     27 O         140.5454  140.2099  162.2080 O.2     1  UNL1       -0.1529
     28 O         137.9908  138.9029  161.3330 O.2     1  UNL1       -0.1529
     29 C         138.9349  139.2502  163.2006 C.ar    1  UNL1        0.1494
     30 C         139.1545  137.8690  163.7426 C.ar    1  UNL1        0.0245
     31 C         138.8213  137.5627  165.1728 C.ar    1  UNL1        0.0312
     32 C         138.2685  138.6378  166.0608 C.ar    1  UNL1        0.1425
     33 F         137.9353  138.3316  167.4909 F       1  UNL1       -0.2041
     34 C         138.0489  140.0191  165.5187 C.ar    1  UNL1        0.0606
     35 C         138.3821  140.3253  164.0887 C.ar    1  UNL1        0.1608
     36 F         138.1625  141.7066  163.5466 F       1  UNL1       -0.2027
@<TRIPOS>BOND
     1    19    20    3
     2    20    13    1
     3    13    14   ar
     4    14    15   ar
     5    15    16   ar
     6    16    12    1
     7    12    11    1
     8    11    10    1
     9    10     1    1
    10     1     2    1
    11     2     3    1
    12     3     4    1
    13     4     5    1
    14     5    21    1
    15    21    22    1
    16    22    23    1
    17    23    24    1
    18    24    26    1
    19    26    27    2
    20    26    28    2
    21    26    29    1
    22    29    30   ar
    23    30    31   ar
    24    31    32   ar
    25    32    33    1
    26    32    34   ar
    27    34    35   ar
    28    35    36    1
    29     5     6    1
    30     6     7    1
    31     7     8    1
    32     7     9    1
    33    16    17   ar
    34    17    18   ar
    35    18    13   ar
    36     8     1    1
    37     9     3    1
    38    35    29   ar
    39    24    25    1
@<TRIPOS>MOLECULE
*****
 36 39 0 0 0
SMALL
GASTEIGER

@<TRIPOS>ATOM
      1 N         144.6911  140.5939  162.7834 N.3     1  UNL1       -0.2653
      2 C         144.5159  141.3168  161.4808 C.3     1  UNL1        0.1036
      3 C         143.8878  140.6160  160.3128 C.3     1  UNL1        0.1470
      4 C         143.2597  139.9152  159.1447 C.3     1  UNL1        0.1035
      5 N         142.8069  138.4915  159.2792 N.3     1  UNL1       -0.2685
      6 C         142.9821  137.7686  160.5819 C.3     1  UNL1        0.1035
      7 C         143.6102  138.4694  161.7499 C.3     1  UNL1        0.1470
      8 C         144.2382  139.1702  162.9179 C.3     1  UNL1        0.1036
      9 O         143.4350  139.1923  160.4473 O.3     1  UNL1       -0.3530
     10 C         145.3192  141.2947  163.9515 C.3     1  UNL1        0.1202
     11 C         144.4996  142.2222  164.7989 C.3     1  UNL1        0.2226
     12 O         143.0045  142.1014  164.8127 O.3     1  UNL1       -0.4740
     13 C         140.9010  140.6169  168.5034 C.ar    1  UNL1        0.0686
     14 C         141.9968  139.8003  167.8850 C.ar    1  UNL1        0.0134
     15 C         142.6979  140.2951  166.6548 C.ar    1  UNL1        0.0376
     16 C         142.3034  141.6066  166.0429 C.ar    1  UNL1        0.1387
     17 C         141.2076  142.4232  166.6613 C.ar    1  UNL1        0.0376
     18 C         140.5064  141.9284  167.8916 C.ar    1  UNL1        0.0134
     19 N         139.4987  139.6273  170.9639 N.1     1  UNL1       -0.1908
     20 C         140.1998  140.1221  169.7336 C.1     1  UNL1        0.1004
     21 C         142.1788  137.7907  158.1112 C.3     1  UNL1        0.0737
     22 C         140.7580  138.0885  157.7333 C.3     1  UNL1        0.0362
     23 C         139.7466  138.3923  158.7985 C.3     1  UNL1        0.0929
     24 N         139.9469  139.5667  159.7098 N.3     1  UNL1       -0.1793
     25 H         139.3347  140.3094  159.3720 H       1  UNL1        0.1488
     26 S         139.6878  139.4275  161.1807 S.O2    1  UNL1        0.0624
     27 O         140.5074  140.6564  161.4414 O.2     1  UNL1       -0.1529
     28 O         138.8682  138.1986  160.9200 O.2     1  UNL1       -0.1529
     29 C         139.4287  139.2883  162.6516 C.ar    1  UNL1        0.1494
     30 C         140.1716  138.2582  163.4497 C.ar    1  UNL1        0.0245
     31 C         139.9126  138.1189  164.9206 C.ar    1  UNL1        0.0312
     32 C         138.9107  139.0098  165.5934 C.ar    1  UNL1        0.1425
     33 F         138.6516  138.8706  167.0642 F       1  UNL1       -0.2041
     34 C         138.1678  140.0399  164.7951 C.ar    1  UNL1        0.0606
     35 C         138.4268  140.1791  163.3243 C.ar    1  UNL1        0.1608
     36 F         137.6839  141.2091  162.5261 F       1  UNL1       -0.2027
@<TRIPOS>BOND
     1    19    20    3
     2    20    13    1
     3    13    14   ar
     4    14    15   ar
     5    15    16   ar
     6    16    12    1
     7    12    11    1
     8    11    10    1
     9    10     1    1
    10     1     2    1
    11     2     3    1
    12     3     4    1
    13     4     5    1
    14     5    21    1
    15    21    22    1
    16    22    23    1
    17    23    24    1
    18    24    26    1
    19    26    27    2
    20    26    28    2
    21    26    29    1
    22    29    30   ar
    23    30    31   ar
    24    31    32   ar
    25    32    33    1
    26    32    34   ar
    27    34    35   ar
    28    35    36    1
    29     5     6    1
    30     6     7    1
    31     7     8    1
    32     7     9    1
    33    16    17   ar
    34    17    18   ar
    35    18    13   ar
    36     8     1    1
    37     9     3    1
    38    35    29   ar
    39    24    25    1
