@<TRIPOS>MOLECULE
*****
 29 32 0 0 0
SMALL
GASTEIGER

@<TRIPOS>ATOM
      1 C         140.5448  139.9668  164.5230 C.3     1  UNL1        0.1910
      2 O         140.4311  140.9797  163.4225 O.3     1  UNL1       -0.3500
      3 C         140.7161  142.4257  163.7016 C.3     1  UNL1        0.1145
      4 C         141.0011  143.8717  163.9808 C.3     1  UNL1        0.0463
      5 C         140.8874  144.8845  162.8803 C.3     1  UNL1        0.0746
      6 N         140.4887  144.4515  161.5006 N.3     1  UNL1       -0.2722
      7 C         140.2036  143.0055  161.2215 C.3     1  UNL1        0.0746
      8 C         140.3173  141.9927  162.3220 C.3     1  UNL1        0.0463
      9 C         141.1149  142.8588  165.0813 C.3     1  UNL1        0.1254
     10 N         141.2286  141.8458  166.1818 N.am    1  UNL1       -0.2543
     11 C         140.9435  140.3999  165.9026 C.2     1  UNL1        0.2566
     12 O         141.0572  139.3869  167.0031 O.2     1  UNL1       -0.2719
     13 C         141.6273  142.2789  167.5615 C.ar    1  UNL1        0.0540
     14 C         140.6203  142.9276  168.4643 C.ar    1  UNL1        0.0149
     15 C         141.0191  143.3607  169.8439 C.ar    1  UNL1        0.0013
     16 C         142.4248  143.1450  170.3208 C.ar    1  UNL1        0.0001
     17 C         143.4319  142.4963  169.4179 C.ar    1  UNL1        0.0013
     18 C         143.0331  142.0632  168.0383 C.ar    1  UNL1        0.0149
     19 C         138.8842  137.9693  164.4755 C.3     1  UNL1        0.0030
     20 C         140.2597  138.5208  164.2438 C.3     1  UNL1        0.0362
     21 C         141.3502  137.6264  163.7331 C.3     1  UNL1        0.0030
     22 C         140.3750  145.4644  160.4001 C.3     1  UNL1        0.0768
     23 C         141.0134  145.2003  159.0688 C.3     1  UNL1        0.0437
     24 C         140.1801  145.2136  157.8215 C.ar    1  UNL1       -0.0208
     25 C         139.9470  146.5016  157.0889 C.ar    1  UNL1       -0.0042
     26 C         139.1138  146.5148  155.8418 C.ar    1  UNL1       -0.0003
     27 C         138.5135  145.2401  155.3272 C.ar    1  UNL1       -0.0000
     28 C         138.7466  143.9521  156.0598 C.ar    1  UNL1       -0.0003
     29 C         139.5798  143.9388  157.3070 C.ar    1  UNL1       -0.0042
@<TRIPOS>BOND
     1    19    20    1
     2    20    21    1
     3    20     1    1
     4     1     2    1
     5     2     3    1
     6     3     4    1
     7     4     5    1
     8     5     6    1
     9     6    22    1
    10    22    23    1
    11    23    24    1
    12    24    25   ar
    13    25    26   ar
    14    26    27   ar
    15    27    28   ar
    16    28    29   ar
    17     6     7    1
    18     7     8    1
    19     3     9    1
    20     9    10    1
    21    10    13    1
    22    13    14   ar
    23    14    15   ar
    24    15    16   ar
    25    16    17   ar
    26    17    18   ar
    27    10    11   am
    28    11    12    2
    29    11     1    1
    30     8     3    1
    31    18    13   ar
    32    29    24   ar
@<TRIPOS>MOLECULE
*****
 29 32 0 0 0
SMALL
GASTEIGER

@<TRIPOS>ATOM
      1 C         143.4572  140.5338  162.9437 C.3     1  UNL1        0.1910
      2 O         143.2898  139.7403  161.6819 O.3     1  UNL1       -0.3500
      3 C         142.0074  139.8234  160.9082 C.3     1  UNL1        0.1145
      4 C         140.7250  139.9065  160.1346 C.3     1  UNL1        0.0463
      5 C         140.5576  139.1129  158.8727 C.3     1  UNL1        0.0746
      6 N         141.6726  138.2363  158.3845 N.3     1  UNL1       -0.2722
      7 C         142.9550  138.1532  159.1581 C.3     1  UNL1        0.0746
      8 C         143.1224  138.9467  160.4200 C.3     1  UNL1        0.0463
      9 C         140.8924  140.7000  161.3964 C.3     1  UNL1        0.1254
     10 N         141.0598  141.4935  162.6583 N.am    1  UNL1       -0.2543
     11 C         142.3422  141.4104  163.4319 C.2     1  UNL1        0.2566
     12 O         142.5097  142.2040  164.6938 O.2     1  UNL1       -0.2719
     13 C         139.9449  142.3701  163.1465 C.ar    1  UNL1        0.0540
     14 C         138.8851  141.8051  164.0451 C.ar    1  UNL1        0.0149
     15 C         137.7701  142.6817  164.5333 C.ar    1  UNL1        0.0013
     16 C         137.7149  144.1233  164.1229 C.ar    1  UNL1        0.0001
     17 C         138.7747  144.6885  163.2243 C.ar    1  UNL1        0.0013
     18 C         139.8897  143.8119  162.7361 C.ar    1  UNL1        0.0149
     19 C         145.7596  141.5441  163.5982 C.3     1  UNL1        0.0030
     20 C         144.7397  140.4507  163.7174 C.3     1  UNL1        0.0362
     21 C         145.0021  139.2743  164.6102 C.3     1  UNL1        0.0030
     22 C         141.5052  137.4428  157.1226 C.3     1  UNL1        0.0768
     23 C         142.6626  136.6696  156.5637 C.3     1  UNL1        0.0437
     24 C         142.5749  135.1778  156.4329 C.ar    1  UNL1       -0.0208
     25 C         141.6303  134.5662  155.4411 C.ar    1  UNL1       -0.0042
     26 C         141.5426  133.0745  155.3103 C.ar    1  UNL1       -0.0003
     27 C         142.3995  132.1945  156.1713 C.ar    1  UNL1       -0.0000
     28 C         143.3440  132.8061  157.1631 C.ar    1  UNL1       -0.0003
     29 C         143.4317  134.2978  157.2939 C.ar    1  UNL1       -0.0042
@<TRIPOS>BOND
     1    19    20    1
     2    20    21    1
     3    20     1    1
     4     1     2    1
     5     2     3    1
     6     3     4    1
     7     4     5    1
     8     5     6    1
     9     6    22    1
    10    22    23    1
    11    23    24    1
    12    24    25   ar
    13    25    26   ar
    14    26    27   ar
    15    27    28   ar
    16    28    29   ar
    17     6     7    1
    18     7     8    1
    19     3     9    1
    20     9    10    1
    21    10    13    1
    22    13    14   ar
    23    14    15   ar
    24    15    16   ar
    25    16    17   ar
    26    17    18   ar
    27    10    11   am
    28    11    12    2
    29    11     1    1
    30     8     3    1
    31    18    13   ar
    32    29    24   ar
@<TRIPOS>MOLECULE
*****
 29 32 0 0 0
SMALL
GASTEIGER

@<TRIPOS>ATOM
      1 C         139.8498  143.7275  163.3106 C.3     1  UNL1        0.1910
      2 O         139.9412  144.3272  161.9388 O.3     1  UNL1       -0.3500
      3 C         141.0881  143.9717  161.0397 C.3     1  UNL1        0.1145
      4 C         142.2350  143.6163  160.1407 C.3     1  UNL1        0.0463
      5 C         142.3263  144.2159  158.7688 C.3     1  UNL1        0.0746
      6 N         141.2708  145.1711  158.2960 N.3     1  UNL1       -0.2722
      7 C         140.1239  145.5266  159.1950 C.3     1  UNL1        0.0746
      8 C         140.0326  144.9269  160.5669 C.3     1  UNL1        0.0463
      9 C         142.1436  143.0166  161.5125 C.3     1  UNL1        0.1254
     10 N         142.0522  142.4169  162.8844 N.am    1  UNL1       -0.2543
     11 C         140.9053  142.7723  163.7835 C.2     1  UNL1        0.2566
     12 O         140.8139  142.1726  165.1554 O.2     1  UNL1       -0.2719
     13 C         143.1077  141.4617  163.3573 C.ar    1  UNL1        0.0540
     14 C         144.5135  141.9411  163.5668 C.ar    1  UNL1        0.0149
     15 C         145.5690  140.9859  164.0396 C.ar    1  UNL1        0.0013
     16 C         145.2188  139.5514  164.3029 C.ar    1  UNL1        0.0001
     17 C         143.8129  139.0719  164.0934 C.ar    1  UNL1        0.0013
     18 C         142.7574  140.0271  163.6206 C.ar    1  UNL1        0.0149
     19 C         138.9304  144.9619  165.4038 C.3     1  UNL1        0.0030
     20 C         138.7029  144.0829  164.2097 C.3     1  UNL1        0.0362
     21 C         137.3285  143.5595  163.9148 C.3     1  UNL1        0.0030
     22 C         141.3622  145.7708  156.9241 C.3     1  UNL1        0.0768
     23 C         140.1144  146.0204  156.1300 C.3     1  UNL1        0.0437
     24 C         139.6895  147.4258  155.8226 C.ar    1  UNL1       -0.0208
     25 C         140.1146  148.0740  154.5385 C.ar    1  UNL1       -0.0042
     26 C         139.6898  149.4793  154.2312 C.ar    1  UNL1       -0.0003
     27 C         138.8397  150.2364  155.2080 C.ar    1  UNL1       -0.0000
     28 C         138.4146  149.5882  156.4921 C.ar    1  UNL1       -0.0003
     29 C         138.8395  148.1829  156.7995 C.ar    1  UNL1       -0.0042
@<TRIPOS>BOND
     1    19    20    1
     2    20    21    1
     3    20     1    1
     4     1     2    1
     5     2     3    1
     6     3     4    1
     7     4     5    1
     8     5     6    1
     9     6    22    1
    10    22    23    1
    11    23    24    1
    12    24    25   ar
    13    25    26   ar
    14    26    27   ar
    15    27    28   ar
    16    28    29   ar
    17     6     7    1
    18     7     8    1
    19     3     9    1
    20     9    10    1
    21    10    13    1
    22    13    14   ar
    23    14    15   ar
    24    15    16   ar
    25    16    17   ar
    26    17    18   ar
    27    10    11   am
    28    11    12    2
    29    11     1    1
    30     8     3    1
    31    18    13   ar
    32    29    24   ar
@<TRIPOS>MOLECULE
*****
 29 32 0 0 0
SMALL
GASTEIGER

@<TRIPOS>ATOM
      1 C         139.3764  140.1604  165.8267 C.3     1  UNL1        0.1910
      2 O         139.3453  141.0330  164.6071 O.3     1  UNL1       -0.3500
      3 C         140.0683  142.3473  164.6066 C.3     1  UNL1        0.1145
      4 C         140.7913  143.6615  164.6062 C.3     1  UNL1        0.0463
      5 C         140.7602  144.5342  163.3866 C.3     1  UNL1        0.0746
      6 N         140.0060  144.0927  162.1675 N.3     1  UNL1       -0.2722
      7 C         139.2830  142.7785  162.1679 C.3     1  UNL1        0.0746
      8 C         139.3141  141.9058  163.3875 C.3     1  UNL1        0.0463
      9 C         140.8225  142.7889  165.8258 C.3     1  UNL1        0.1254
     10 N         140.8536  141.9161  167.0454 N.am    1  UNL1       -0.2543
     11 C         140.1306  140.6019  167.0459 C.2     1  UNL1        0.2566
     12 O         140.1617  139.7291  168.2655 O.2     1  UNL1       -0.2719
     13 C         141.6077  142.3576  168.2645 C.ar    1  UNL1        0.0540
     14 C         140.9401  143.2331  169.2832 C.ar    1  UNL1        0.0149
     15 C         141.6943  143.6746  170.5024 C.ar    1  UNL1        0.0013
     16 C         143.1161  143.2407  170.7028 C.ar    1  UNL1        0.0001
     17 C         143.7838  142.3652  169.6841 C.ar    1  UNL1        0.0013
     18 C         143.0296  141.9237  168.4649 C.ar    1  UNL1        0.0149
     19 C         138.9537  137.8245  164.7708 C.3     1  UNL1        0.0030
     20 C         138.6534  138.8461  165.8272 C.3     1  UNL1        0.0362
     21 C         137.6300  138.5534  166.8841 C.3     1  UNL1        0.0030
     22 C         139.9749  144.9654  160.9479 C.3     1  UNL1        0.0768
     23 C         141.1854  145.0682  160.0681 C.3     1  UNL1        0.0437
     24 C         141.4841  143.9856  159.0738 C.ar    1  UNL1       -0.0208
     25 C         142.9053  143.5974  158.7919 C.ar    1  UNL1       -0.0042
     26 C         143.2039  142.5148  157.7976 C.ar    1  UNL1       -0.0003
     27 C         142.0814  141.8204  157.0851 C.ar    1  UNL1       -0.0000
     28 C         140.6602  142.2086  157.3669 C.ar    1  UNL1       -0.0003
     29 C         140.3616  143.2912  158.3613 C.ar    1  UNL1       -0.0042
@<TRIPOS>BOND
     1    19    20    1
     2    20    21    1
     3    20     1    1
     4     1     2    1
     5     2     3    1
     6     3     4    1
     7     4     5    1
     8     5     6    1
     9     6    22    1
    10    22    23    1
    11    23    24    1
    12    24    25   ar
    13    25    26   ar
    14    26    27   ar
    15    27    28   ar
    16    28    29   ar
    17     6     7    1
    18     7     8    1
    19     3     9    1
    20     9    10    1
    21    10    13    1
    22    13    14   ar
    23    14    15   ar
    24    15    16   ar
    25    16    17   ar
    26    17    18   ar
    27    10    11   am
    28    11    12    2
    29    11     1    1
    30     8     3    1
    31    18    13   ar
    32    29    24   ar
@<TRIPOS>MOLECULE
*****
 29 32 0 0 0
SMALL
GASTEIGER

@<TRIPOS>ATOM
      1 C         143.2431  142.3268  163.9073 C.3     1  UNL1        0.1910
      2 O         142.7597  143.1209  162.7302 O.3     1  UNL1       -0.3500
      3 C         141.3914  142.8717  162.1682 C.3     1  UNL1        0.1145
      4 C         140.0232  142.6224  161.6063 C.3     1  UNL1        0.0463
      5 C         139.5398  143.4165  160.4292 C.3     1  UNL1        0.0746
      6 N         140.4245  144.4600  159.8141 N.3     1  UNL1       -0.2722
      7 C         141.7927  144.7093  160.3760 C.3     1  UNL1        0.0746
      8 C         142.2762  143.9151  161.5531 C.3     1  UNL1        0.0463
      9 C         140.5066  141.8282  162.7833 C.3     1  UNL1        0.1254
     10 N         140.9901  141.0340  163.9605 N.am    1  UNL1       -0.2543
     11 C         142.3583  141.2833  164.5224 C.2     1  UNL1        0.2566
     12 O         142.8418  140.4891  165.6996 O.2     1  UNL1       -0.2719
     13 C         140.1053  139.9906  164.5756 C.ar    1  UNL1        0.0540
     14 C         140.0913  138.5972  164.0206 C.ar    1  UNL1        0.0149
     15 C         139.2065  137.5537  164.6357 C.ar    1  UNL1        0.0013
     16 C         138.3358  137.9037  165.8058 C.ar    1  UNL1        0.0001
     17 C         138.3498  139.2972  166.3610 C.ar    1  UNL1        0.0013
     18 C         139.2346  140.3406  165.7458 C.ar    1  UNL1        0.0149
     19 C         145.7818  141.7786  163.9752 C.3     1  UNL1        0.0030
     20 C         144.6113  142.5761  164.4693 C.3     1  UNL1        0.0362
     21 C         144.8091  143.6227  165.5254 C.3     1  UNL1        0.0030
     22 C         139.9411  145.2542  158.6369 C.3     1  UNL1        0.0768
     23 C         140.3668  144.8739  157.2498 C.3     1  UNL1        0.0437
     24 C         140.2603  145.8698  156.1331 C.ar    1  UNL1       -0.0208
     25 C         139.3304  147.0401  156.2580 C.ar    1  UNL1       -0.0042
     26 C         139.2240  148.0359  155.1413 C.ar    1  UNL1       -0.0003
     27 C         140.0475  147.8614  153.8997 C.ar    1  UNL1       -0.0000
     28 C         140.9774  146.6911  153.7749 C.ar    1  UNL1       -0.0003
     29 C         141.0838  145.6953  154.8915 C.ar    1  UNL1       -0.0042
@<TRIPOS>BOND
     1    19    20    1
     2    20    21    1
     3    20     1    1
     4     1     2    1
     5     2     3    1
     6     3     4    1
     7     4     5    1
     8     5     6    1
     9     6    22    1
    10    22    23    1
    11    23    24    1
    12    24    25   ar
    13    25    26   ar
    14    26    27   ar
    15    27    28   ar
    16    28    29   ar
    17     6     7    1
    18     7     8    1
    19     3     9    1
    20     9    10    1
    21    10    13    1
    22    13    14   ar
    23    14    15   ar
    24    15    16   ar
    25    16    17   ar
    26    17    18   ar
    27    10    11   am
    28    11    12    2
    29    11     1    1
    30     8     3    1
    31    18    13   ar
    32    29    24   ar
@<TRIPOS>MOLECULE
*****
 29 32 0 0 0
SMALL
GASTEIGER

@<TRIPOS>ATOM
      1 C         143.9532  140.4733  157.6330 C.3     1  UNL1        0.1910
      2 O         143.9575  140.4541  159.1328 O.3     1  UNL1       -0.3500
      3 C         143.4302  139.2583  159.8692 C.3     1  UNL1        0.1145
      4 C         142.9029  138.0625  160.6054 C.3     1  UNL1        0.0463
      5 C         142.9073  138.0433  162.1052 C.3     1  UNL1        0.0746
      6 N         143.4389  139.2199  162.8688 N.3     1  UNL1       -0.2722
      7 C         143.9662  140.4156  162.1326 C.3     1  UNL1        0.0746
      8 C         143.9618  140.4348  160.6328 C.3     1  UNL1        0.0463
      9 C         142.8986  138.0817  159.1056 C.3     1  UNL1        0.1254
     10 N         142.8943  138.1009  157.6056 N.am    1  UNL1       -0.2543
     11 C         143.4216  139.2967  156.8694 C.2     1  UNL1        0.2566
     12 O         143.4173  139.3159  155.3695 O.2     1  UNL1       -0.2719
     13 C         142.3627  136.9244  156.8420 C.ar    1  UNL1        0.0540
     14 C         143.1027  135.6198  156.8637 C.ar    1  UNL1        0.0149
     15 C         142.5711  134.4432  156.1001 C.ar    1  UNL1        0.0013
     16 C         141.2995  134.5712  155.3148 C.ar    1  UNL1        0.0001
     17 C         140.5594  135.8758  155.2932 C.ar    1  UNL1        0.0013
     18 C         141.0910  137.0524  156.0568 C.ar    1  UNL1        0.0149
     19 C         145.9367  141.7521  156.5465 C.3     1  UNL1        0.0030
     20 C         144.4805  141.6691  156.8967 C.3     1  UNL1        0.0362
     21 C         143.5516  142.7817  156.5106 C.3     1  UNL1        0.0030
     22 C         143.4432  139.2007  164.3688 C.3     1  UNL1        0.0768
     23 C         142.6207  138.1874  165.1082 C.3     1  UNL1        0.0437
     24 C         141.1793  138.4697  165.4132 C.ar    1  UNL1       -0.0208
     25 C         140.8154  139.5773  166.3571 C.ar    1  UNL1       -0.0042
     26 C         139.3742  139.8595  166.6620 C.ar    1  UNL1       -0.0003
     27 C         138.2968  139.0342  166.0232 C.ar    1  UNL1       -0.0000
     28 C         138.6607  137.9267  165.0793 C.ar    1  UNL1       -0.0003
     29 C         140.1020  137.6444  164.7744 C.ar    1  UNL1       -0.0042
@<TRIPOS>BOND
     1    19    20    1
     2    20    21    1
     3    20     1    1
     4     1     2    1
     5     2     3    1
     6     3     4    1
     7     4     5    1
     8     5     6    1
     9     6    22    1
    10    22    23    1
    11    23    24    1
    12    24    25   ar
    13    25    26   ar
    14    26    27   ar
    15    27    28   ar
    16    28    29   ar
    17     6     7    1
    18     7     8    1
    19     3     9    1
    20     9    10    1
    21    10    13    1
    22    13    14   ar
    23    14    15   ar
    24    15    16   ar
    25    16    17   ar
    26    17    18   ar
    27    10    11   am
    28    11    12    2
    29    11     1    1
    30     8     3    1
    31    18    13   ar
    32    29    24   ar
@<TRIPOS>MOLECULE
*****
 29 32 0 0 0
SMALL
GASTEIGER

@<TRIPOS>ATOM
      1 C         141.1952  138.7753  162.3573 C.3     1  UNL1        0.1910
      2 O         141.6031  138.4339  160.9548 O.3     1  UNL1       -0.3500
      3 C         142.3963  139.4158  160.1444 C.3     1  UNL1        0.1145
      4 C         143.1895  140.3977  159.3340 C.3     1  UNL1        0.0463
      5 C         143.5974  140.0563  157.9315 C.3     1  UNL1        0.0746
      6 N         143.2122  138.7331  157.3394 N.3     1  UNL1       -0.2722
      7 C         142.4190  137.7512  158.1498 C.3     1  UNL1        0.0746
      8 C         142.0111  138.0926  159.5522 C.3     1  UNL1        0.0463
      9 C         142.7816  140.7391  160.7365 C.3     1  UNL1        0.1254
     10 N         142.3736  141.0804  162.1390 N.am    1  UNL1       -0.2543
     11 C         141.5804  140.0986  162.9494 C.2     1  UNL1        0.2566
     12 O         141.1724  140.4399  164.3520 O.2     1  UNL1       -0.2719
     13 C         142.7588  142.4037  162.7312 C.ar    1  UNL1        0.0540
     14 C         141.9434  143.6261  162.4300 C.ar    1  UNL1        0.0149
     15 C         142.3286  144.9493  163.0221 C.ar    1  UNL1        0.0013
     16 C         143.5294  145.0502  163.9154 C.ar    1  UNL1        0.0001
     17 C         144.3449  143.8278  164.2166 C.ar    1  UNL1        0.0013
     18 C         143.9597  142.5045  163.6245 C.ar    1  UNL1        0.0149
     19 C         138.9202  137.6774  162.9651 C.3     1  UNL1        0.0030
     20 C         140.4019  137.7934  163.1678 C.3     1  UNL1        0.0362
     21 C         141.0904  136.9276  164.1808 C.3     1  UNL1        0.0030
     22 C         143.6201  138.3917  155.9368 C.3     1  UNL1        0.0768
     23 C         144.3206  137.0959  155.6538 C.3     1  UNL1        0.0437
     24 C         143.5233  135.8435  155.4395 C.ar    1  UNL1       -0.0208
     25 C         142.6319  135.7180  154.2398 C.ar    1  UNL1       -0.0042
     26 C         141.8346  134.4657  154.0255 C.ar    1  UNL1       -0.0003
     27 C         141.9289  133.3388  155.0111 C.ar    1  UNL1       -0.0000
     28 C         142.8204  133.4643  156.2108 C.ar    1  UNL1       -0.0003
     29 C         143.6176  134.7166  156.4251 C.ar    1  UNL1       -0.0042
@<TRIPOS>BOND
     1    19    20    1
     2    20    21    1
     3    20     1    1
     4     1     2    1
     5     2     3    1
     6     3     4    1
     7     4     5    1
     8     5     6    1
     9     6    22    1
    10    22    23    1
    11    23    24    1
    12    24    25   ar
    13    25    26   ar
    14    26    27   ar
    15    27    28   ar
    16    28    29   ar
    17     6     7    1
    18     7     8    1
    19     3     9    1
    20     9    10    1
    21    10    13    1
    22    13    14   ar
    23    14    15   ar
    24    15    16   ar
    25    16    17   ar
    26    17    18   ar
    27    10    11   am
    28    11    12    2
    29    11     1    1
    30     8     3    1
    31    18    13   ar
    32    29    24   ar
@<TRIPOS>MOLECULE
*****
 29 32 0 0 0
SMALL
GASTEIGER

@<TRIPOS>ATOM
      1 C         140.0691  142.5256  164.4444 C.3     1  UNL1        0.1910
      2 O         140.5130  141.6066  163.3452 O.3     1  UNL1       -0.3500
      3 C         141.4880  140.5046  163.6368 C.3     1  UNL1        0.1145
      4 C         142.4629  139.4026  163.9285 C.3     1  UNL1        0.0463
      5 C         142.9068  138.4836  162.8293 C.3     1  UNL1        0.0746
      6 N         142.3757  138.6665  161.4384 N.3     1  UNL1       -0.2722
      7 C         141.4008  139.7685  161.1468 C.3     1  UNL1        0.0746
      8 C         140.9569  140.6875  162.2460 C.3     1  UNL1        0.0463
      9 C         142.0190  140.3216  165.0277 C.3     1  UNL1        0.1254
     10 N         141.5751  141.2407  166.1269 N.am    1  UNL1       -0.2543
     11 C         140.6002  142.3427  165.8353 C.2     1  UNL1        0.2566
     12 O         140.1563  143.2618  166.9345 O.2     1  UNL1       -0.2719
     13 C         142.1062  141.0578  167.5178 C.ar    1  UNL1        0.0540
     14 C         141.7782  139.8133  168.2882 C.ar    1  UNL1        0.0149
     15 C         142.3092  139.6303  169.6791 C.ar    1  UNL1        0.0013
     16 C         143.1683  140.6919  170.2995 C.ar    1  UNL1        0.0001
     17 C         143.4963  141.9365  169.5292 C.ar    1  UNL1        0.0013
     18 C         142.9652  142.1194  168.1383 C.ar    1  UNL1        0.0149
     19 C         139.5855  144.9447  163.6293 C.3     1  UNL1        0.0030
     20 C         139.0942  143.6277  164.1528 C.3     1  UNL1        0.0362
     21 C         137.6279  143.4127  164.3846 C.3     1  UNL1        0.0030
     22 C         142.8197  137.7474  160.3392 C.3     1  UNL1        0.0768
     23 C         142.9444  138.2620  158.9358 C.3     1  UNL1        0.0437
     24 C         142.1459  137.6332  157.8326 C.ar    1  UNL1       -0.0208
     25 C         142.7617  136.5685  156.9740 C.ar    1  UNL1       -0.0042
     26 C         141.9632  135.9397  155.8708 C.ar    1  UNL1       -0.0003
     27 C         140.5490  136.3756  155.6262 C.ar    1  UNL1       -0.0000
     28 C         139.9332  137.4404  156.4848 C.ar    1  UNL1       -0.0003
     29 C         140.7317  138.0691  157.5879 C.ar    1  UNL1       -0.0042
@<TRIPOS>BOND
     1    19    20    1
     2    20    21    1
     3    20     1    1
     4     1     2    1
     5     2     3    1
     6     3     4    1
     7     4     5    1
     8     5     6    1
     9     6    22    1
    10    22    23    1
    11    23    24    1
    12    24    25   ar
    13    25    26   ar
    14    26    27   ar
    15    27    28   ar
    16    28    29   ar
    17     6     7    1
    18     7     8    1
    19     3     9    1
    20     9    10    1
    21    10    13    1
    22    13    14   ar
    23    14    15   ar
    24    15    16   ar
    25    16    17   ar
    26    17    18   ar
    27    10    11   am
    28    11    12    2
    29    11     1    1
    30     8     3    1
    31    18    13   ar
    32    29    24   ar
@<TRIPOS>MOLECULE
*****
 29 32 0 0 0
SMALL
GASTEIGER

@<TRIPOS>ATOM
      1 C         143.7345  139.9430  157.2101 C.3     1  UNL1        0.1910
      2 O         143.5635  140.1097  158.6910 O.3     1  UNL1       -0.3500
      3 C         143.0473  138.9707  159.5194 C.3     1  UNL1        0.1145
      4 C         142.5311  137.8317  160.3477 C.3     1  UNL1        0.0463
      5 C         142.3601  137.9984  161.8285 C.3     1  UNL1        0.0746
      6 N         142.7052  139.3042  162.4810 N.3     1  UNL1       -0.2722
      7 C         143.2214  140.4432  161.6527 C.3     1  UNL1        0.0746
      8 C         143.3924  140.2765  160.1719 C.3     1  UNL1        0.0463
      9 C         142.7021  137.6649  158.8668 C.3     1  UNL1        0.1254
     10 N         142.8732  137.4982  157.3859 N.am    1  UNL1       -0.2543
     11 C         143.3893  138.6372  156.5576 C.2     1  UNL1        0.2566
     12 O         143.5604  138.4705  155.0767 O.2     1  UNL1       -0.2719
     13 C         142.5280  136.1924  156.7334 C.ar    1  UNL1        0.0540
     14 C         141.3945  136.1200  155.7538 C.ar    1  UNL1        0.0149
     15 C         141.0493  134.8142  155.1012 C.ar    1  UNL1        0.0013
     16 C         141.8378  133.5808  155.4284 C.ar    1  UNL1        0.0001
     17 C         142.9714  133.6531  156.4081 C.ar    1  UNL1        0.0013
     18 C         143.3165  134.9589  157.0606 C.ar    1  UNL1        0.0149
     19 C         145.7179  141.3933  156.3660 C.3     1  UNL1        0.0030
     20 C         144.2507  141.0820  156.3817 C.3     1  UNL1        0.0362
     21 C         143.2996  141.9098  155.5692 C.3     1  UNL1        0.0030
     22 C         142.5342  139.4709  163.9619 C.3     1  UNL1        0.0768
     23 C         142.9928  140.7318  164.6326 C.3     1  UNL1        0.0437
     24 C         142.9409  140.8479  166.1273 C.ar    1  UNL1       -0.0208
     25 C         142.6539  139.6366  166.9641 C.ar    1  UNL1       -0.0042
     26 C         142.6020  139.7527  168.4587 C.ar    1  UNL1       -0.0003
     27 C         142.8371  141.0801  169.1164 C.ar    1  UNL1       -0.0000
     28 C         143.1240  142.2915  168.2796 C.ar    1  UNL1       -0.0003
     29 C         143.1759  142.1753  166.7850 C.ar    1  UNL1       -0.0042
@<TRIPOS>BOND
     1    19    20    1
     2    20    21    1
     3    20     1    1
     4     1     2    1
     5     2     3    1
     6     3     4    1
     7     4     5    1
     8     5     6    1
     9     6    22    1
    10    22    23    1
    11    23    24    1
    12    24    25   ar
    13    25    26   ar
    14    26    27   ar
    15    27    28   ar
    16    28    29   ar
    17     6     7    1
    18     7     8    1
    19     3     9    1
    20     9    10    1
    21    10    13    1
    22    13    14   ar
    23    14    15   ar
    24    15    16   ar
    25    16    17   ar
    26    17    18   ar
    27    10    11   am
    28    11    12    2
    29    11     1    1
    30     8     3    1
    31    18    13   ar
    32    29    24   ar
