@<TRIPOS>MOLECULE
*****
 28 31 0 0 0
SMALL
GASTEIGER

@<TRIPOS>ATOM
      1 C         141.4399  138.9547  163.6495 C.ar    1  UNL1        0.0878
      2 C         140.7238  138.1344  162.6177 C.ar    1  UNL1        0.0091
      3 C         139.3522  137.5995  162.9046 C.ar    1  UNL1        0.0194
      4 C         138.6965  137.8848  164.2232 C.ar    1  UNL1        0.0844
      5 N         139.4125  138.7050  165.2549 N.ar    1  UNL1       -0.2576
      6 C         138.7568  138.9903  166.5735 C.ar    1  UNL1        0.2672
      7 O         137.3852  138.4554  166.8604 O.2     1  UNL1       -0.2665
      8 C         139.4729  139.8106  167.6053 C.ar    1  UNL1        0.0742
      9 C         138.8173  140.0959  168.9239 C.ar    1  UNL1        0.0063
     10 C         139.5333  140.9161  169.9556 C.ar    1  UNL1        0.0003
     11 C         140.9050  141.4511  169.6687 C.ar    1  UNL1        0.0015
     12 C         141.6210  142.2713  170.7005 C.ar    1  UNL1        0.0000
     13 C         142.9927  142.8063  170.4136 C.ar    1  UNL1        0.0000
     14 C         143.6484  142.5209  169.0950 C.ar    1  UNL1        0.0000
     15 C         142.9324  141.7007  168.0633 C.ar    1  UNL1        0.0015
     16 C         141.5607  141.1658  168.3501 C.ar    1  UNL1        0.0179
     17 C         140.8446  140.3455  167.3184 C.ar    1  UNL1        0.0875
     18 N         141.5003  140.0602  165.9998 N.ar    1  UNL1       -0.2276
     19 C         140.7843  139.2400  164.9681 C.ar    1  UNL1        0.1543
     20 N         143.8645  139.4655  164.4306 N.am    1  UNL1       -0.2994
     21 C         142.8116  139.4896  163.3626 C.2     1  UNL1        0.2488
     22 O         143.1304  140.0487  162.0076 O.2     1  UNL1       -0.2700
     23 H         143.6553  139.0985  165.3199 H       1  UNL1        0.1498
     24 C         145.2363  140.0004  164.1437 C.3     1  UNL1        0.1068
     25 C         145.4366  141.4702  163.9212 C.3     1  UNL1        0.0901
     26 C         144.7260  143.1231  162.0469 C.3     1  UNL1        0.0859
     27 N         145.5993  142.0026  162.5284 N.3     1  UNL1       -0.2949
     28 H         146.5636  142.3252  162.4472 H       1  UNL1        0.1233
@<TRIPOS>BOND
     1    26    27    1
     2    27    25    1
     3    25    24    1
     4    24    20    1
     5    20    21   am
     6    21    22    2
     7    21     1    1
     8     1     2   ar
     9     2     3   ar
    10     3     4   ar
    11     4     5   ar
    12     5     6   ar
    13     6     7    2
    14     6     8   ar
    15     8     9   ar
    16     9    10   ar
    17    10    11   ar
    18    11    12   ar
    19    12    13   ar
    20    13    14   ar
    21    14    15   ar
    22    15    16   ar
    23    16    17   ar
    24    17    18   ar
    25    18    19   ar
    26    19     1   ar
    27    19     5   ar
    28    17     8   ar
    29    16    11   ar
    30    27    28    1
    31    20    23    1
@<TRIPOS>MOLECULE
*****
 28 31 0 0 0
SMALL
GASTEIGER

@<TRIPOS>ATOM
      1 C         141.6434  141.7077  168.3712 C.ar    1  UNL1        0.0878
      2 C         141.1633  142.0185  169.7580 C.ar    1  UNL1        0.0091
      3 C         139.9115  141.3774  170.2795 C.ar    1  UNL1        0.0194
      4 C         139.1398  140.4256  169.4143 C.ar    1  UNL1        0.0844
      5 N         139.6199  140.1148  168.0277 N.ar    1  UNL1       -0.2576
      6 C         138.8482  139.1629  167.1625 C.ar    1  UNL1        0.2672
      7 O         137.5964  138.5219  167.6841 O.2     1  UNL1       -0.2665
      8 C         139.3283  138.8522  165.7758 C.ar    1  UNL1        0.0742
      9 C         138.5566  137.9003  164.9107 C.ar    1  UNL1        0.0063
     10 C         139.0367  137.5895  163.5240 C.ar    1  UNL1        0.0003
     11 C         140.2885  138.2306  163.0024 C.ar    1  UNL1        0.0015
     12 C         140.7686  137.9198  161.6157 C.ar    1  UNL1        0.0000
     13 C         142.0204  138.5609  161.0942 C.ar    1  UNL1        0.0000
     14 C         142.7921  139.5127  161.9593 C.ar    1  UNL1        0.0000
     15 C         142.3120  139.8235  163.3460 C.ar    1  UNL1        0.0015
     16 C         141.0603  139.1824  163.8675 C.ar    1  UNL1        0.0179
     17 C         140.5801  139.4932  165.2543 C.ar    1  UNL1        0.0875
     18 N         141.3518  140.4451  166.1194 N.ar    1  UNL1       -0.2276
     19 C         140.8717  140.7558  167.5061 C.ar    1  UNL1        0.1543
     20 N         143.0633  142.5771  166.3767 N.am    1  UNL1       -0.2994
     21 C         142.8952  142.3487  167.8497 C.2     1  UNL1        0.2488
     22 O         143.9790  142.7615  168.8011 O.2     1  UNL1       -0.2700
     23 H         142.3521  142.3062  165.7523 H       1  UNL1        0.1498
     24 C         144.3152  143.2182  165.8552 C.3     1  UNL1        0.1068
     25 C         144.3824  143.6828  164.4306 C.3     1  UNL1        0.0901
     26 C         145.7219  141.5913  163.6680 C.3     1  UNL1        0.0859
     27 N         144.7983  142.7296  163.3497 N.3     1  UNL1       -0.2949
     28 H         143.9434  142.3190  162.9742 H       1  UNL1        0.1233
@<TRIPOS>BOND
     1    26    27    1
     2    27    25    1
     3    25    24    1
     4    24    20    1
     5    20    21   am
     6    21    22    2
     7    21     1    1
     8     1     2   ar
     9     2     3   ar
    10     3     4   ar
    11     4     5   ar
    12     5     6   ar
    13     6     7    2
    14     6     8   ar
    15     8     9   ar
    16     9    10   ar
    17    10    11   ar
    18    11    12   ar
    19    12    13   ar
    20    13    14   ar
    21    14    15   ar
    22    15    16   ar
    23    16    17   ar
    24    17    18   ar
    25    18    19   ar
    26    19     1   ar
    27    19     5   ar
    28    17     8   ar
    29    16    11   ar
    30    27    28    1
    31    20    23    1
@<TRIPOS>MOLECULE
*****
 28 31 0 0 0
SMALL
GASTEIGER

@<TRIPOS>ATOM
      1 C         142.7070  141.8235  163.5192 C.ar    1  UNL1        0.0878
      2 C         143.3636  141.1941  162.3263 C.ar    1  UNL1        0.0091
      3 C         144.0246  139.8537  162.4543 C.ar    1  UNL1        0.0194
      4 C         144.0291  139.1427  163.7750 C.ar    1  UNL1        0.0844
      5 N         143.3726  139.7720  164.9679 N.ar    1  UNL1       -0.2576
      6 C         143.3771  139.0610  166.2886 C.ar    1  UNL1        0.2672
      7 O         144.0381  137.7206  166.4165 O.2     1  UNL1       -0.2665
      8 C         142.7205  139.6904  167.4815 C.ar    1  UNL1        0.0742
      9 C         142.7250  138.9793  168.8022 C.ar    1  UNL1        0.0063
     10 C         142.0684  139.6087  169.9950 C.ar    1  UNL1        0.0003
     11 C         141.4074  140.9491  169.8671 C.ar    1  UNL1        0.0015
     12 C         140.7509  141.5784  171.0600 C.ar    1  UNL1        0.0000
     13 C         140.0898  142.9188  170.9320 C.ar    1  UNL1        0.0000
     14 C         140.0854  143.6298  169.6113 C.ar    1  UNL1        0.0000
     15 C         140.7419  143.0005  168.4185 C.ar    1  UNL1        0.0015
     16 C         141.4029  141.6602  168.5464 C.ar    1  UNL1        0.0179
     17 C         142.0595  141.0307  167.3535 C.ar    1  UNL1        0.0875
     18 N         142.0550  141.7418  166.0328 N.ar    1  UNL1       -0.2276
     19 C         142.7115  141.1125  164.8400 C.ar    1  UNL1        0.1543
     20 N         140.6812  143.3856  163.9728 N.am    1  UNL1       -0.2994
     21 C         142.0460  143.1639  163.3913 C.2     1  UNL1        0.2488
     22 O         142.7498  144.2826  162.6818 O.2     1  UNL1       -0.2700
     23 H         140.2193  142.6514  164.4384 H       1  UNL1        0.1498
     24 C         140.0202  144.7261  163.8448 C.3     1  UNL1        0.1068
     25 C         139.1203  145.0103  162.6789 C.3     1  UNL1        0.0901
     26 C         137.8896  142.8734  161.8609 C.3     1  UNL1        0.0859
     27 N         137.8522  144.2289  162.5023 N.3     1  UNL1       -0.2949
     28 H         137.4515  144.1038  163.4319 H       1  UNL1        0.1233
@<TRIPOS>BOND
     1    26    27    1
     2    27    25    1
     3    25    24    1
     4    24    20    1
     5    20    21   am
     6    21    22    2
     7    21     1    1
     8     1     2   ar
     9     2     3   ar
    10     3     4   ar
    11     4     5   ar
    12     5     6   ar
    13     6     7    2
    14     6     8   ar
    15     8     9   ar
    16     9    10   ar
    17    10    11   ar
    18    11    12   ar
    19    12    13   ar
    20    13    14   ar
    21    14    15   ar
    22    15    16   ar
    23    16    17   ar
    24    17    18   ar
    25    18    19   ar
    26    19     1   ar
    27    19     5   ar
    28    17     8   ar
    29    16    11   ar
    30    27    28    1
    31    20    23    1
@<TRIPOS>MOLECULE
*****
 28 31 0 0 0
SMALL
GASTEIGER

@<TRIPOS>ATOM
      1 C         143.1640  141.9911  166.5011 C.ar    1  UNL1        0.0878
      2 C         143.3299  142.4233  167.9280 C.ar    1  UNL1        0.0091
      3 C         142.3549  141.9609  168.9698 C.ar    1  UNL1        0.0194
      4 C         141.2140  141.0663  168.5850 C.ar    1  UNL1        0.0844
      5 N         141.0481  140.6341  167.1582 N.ar    1  UNL1       -0.2576
      6 C         139.9073  139.7395  166.7734 C.ar    1  UNL1        0.2672
      7 O         138.9323  139.2771  167.8152 O.2     1  UNL1       -0.2665
      8 C         139.7414  139.3073  165.3465 C.ar    1  UNL1        0.0742
      9 C         138.6006  138.4127  164.9616 C.ar    1  UNL1        0.0063
     10 C         138.4347  137.9805  163.5349 C.ar    1  UNL1        0.0003
     11 C         139.4097  138.4429  162.4929 C.ar    1  UNL1        0.0015
     12 C         139.2438  138.0107  161.0662 C.ar    1  UNL1        0.0000
     13 C         140.2188  138.4732  160.0243 C.ar    1  UNL1        0.0000
     14 C         141.3596  139.3678  160.4092 C.ar    1  UNL1        0.0000
     15 C         141.5255  139.7999  161.8359 C.ar    1  UNL1        0.0015
     16 C         140.5505  139.3375  162.8778 C.ar    1  UNL1        0.0179
     17 C         140.7164  139.7697  164.3046 C.ar    1  UNL1        0.0875
     18 N         141.8572  140.6643  164.6895 N.ar    1  UNL1       -0.2276
     19 C         142.0231  141.0965  166.1163 C.ar    1  UNL1        0.1543
     20 N         144.6800  141.4806  164.4539 N.am    1  UNL1       -0.2994
     21 C         144.1390  142.4535  165.4592 C.2     1  UNL1        0.2488
     22 O         144.5730  143.8890  165.4227 O.2     1  UNL1       -0.2700
     23 H         144.3952  140.5385  164.4779 H       1  UNL1        0.1498
     24 C         145.6550  141.9431  163.4120 C.3     1  UNL1        0.1068
     25 C         145.1562  142.5673  162.1425 C.3     1  UNL1        0.0901
     26 C         143.1121  144.1680  162.2393 C.3     1  UNL1        0.0859
     27 N         144.5953  143.9583  162.1607 N.3     1  UNL1       -0.2949
     28 H         145.0025  144.4295  162.9685 H       1  UNL1        0.1233
@<TRIPOS>BOND
     1    26    27    1
     2    27    25    1
     3    25    24    1
     4    24    20    1
     5    20    21   am
     6    21    22    2
     7    21     1    1
     8     1     2   ar
     9     2     3   ar
    10     3     4   ar
    11     4     5   ar
    12     5     6   ar
    13     6     7    2
    14     6     8   ar
    15     8     9   ar
    16     9    10   ar
    17    10    11   ar
    18    11    12   ar
    19    12    13   ar
    20    13    14   ar
    21    14    15   ar
    22    15    16   ar
    23    16    17   ar
    24    17    18   ar
    25    18    19   ar
    26    19     1   ar
    27    19     5   ar
    28    17     8   ar
    29    16    11   ar
    30    27    28    1
    31    20    23    1
@<TRIPOS>MOLECULE
*****
 28 31 0 0 0
SMALL
GASTEIGER

@<TRIPOS>ATOM
      1 C         139.5940  142.7479  161.0538 C.ar    1  UNL1        0.0878
      2 C         139.2773  142.5568  159.6001 C.ar    1  UNL1        0.0091
      3 C         138.6466  141.2791  159.1316 C.ar    1  UNL1        0.0194
      4 C         138.3327  140.1924  160.1167 C.ar    1  UNL1        0.0844
      5 N         138.6494  140.3834  161.5703 N.ar    1  UNL1       -0.2576
      6 C         138.3354  139.2967  162.5555 C.ar    1  UNL1        0.2672
      7 O         137.7047  138.0189  162.0869 O.2     1  UNL1       -0.2665
      8 C         138.6521  139.4878  164.0092 C.ar    1  UNL1        0.0742
      9 C         138.3381  138.4011  164.9943 C.ar    1  UNL1        0.0063
     10 C         138.6548  138.5921  166.4480 C.ar    1  UNL1        0.0003
     11 C         139.2855  139.8699  166.9166 C.ar    1  UNL1        0.0015
     12 C         139.6022  140.0609  168.3702 C.ar    1  UNL1        0.0000
     13 C         140.2329  141.3387  168.8388 C.ar    1  UNL1        0.0000
     14 C         140.5469  142.4254  167.8536 C.ar    1  UNL1        0.0000
     15 C         140.2302  142.2344  166.4000 C.ar    1  UNL1        0.0015
     16 C         139.5995  140.9566  165.9315 C.ar    1  UNL1        0.0179
     17 C         139.2828  140.7655  164.4777 C.ar    1  UNL1        0.0875
     18 N         139.5968  141.8522  163.4926 N.ar    1  UNL1       -0.2276
     19 C         139.2801  141.6612  162.0389 C.ar    1  UNL1        0.1543
     20 N         140.8113  144.1113  162.9002 N.am    1  UNL1       -0.2994
     21 C         140.2247  144.0257  161.5223 C.2     1  UNL1        0.2488
     22 O         140.2688  145.2178  160.6130 O.2     1  UNL1       -0.2700
     23 H         140.7824  143.3289  163.4971 H       1  UNL1        0.1498
     24 C         141.4420  145.3892  163.3687 C.3     1  UNL1        0.1068
     25 C         142.8865  145.4087  163.7722 C.3     1  UNL1        0.0901
     26 C         144.4201  143.8280  162.3940 C.3     1  UNL1        0.0859
     27 N         143.9565  145.2121  162.7395 N.3     1  UNL1       -0.2949
     28 H         143.6126  145.6316  161.8757 H       1  UNL1        0.1233
@<TRIPOS>BOND
     1    26    27    1
     2    27    25    1
     3    25    24    1
     4    24    20    1
     5    20    21   am
     6    21    22    2
     7    21     1    1
     8     1     2   ar
     9     2     3   ar
    10     3     4   ar
    11     4     5   ar
    12     5     6   ar
    13     6     7    2
    14     6     8   ar
    15     8     9   ar
    16     9    10   ar
    17    10    11   ar
    18    11    12   ar
    19    12    13   ar
    20    13    14   ar
    21    14    15   ar
    22    15    16   ar
    23    16    17   ar
    24    17    18   ar
    25    18    19   ar
    26    19     1   ar
    27    19     5   ar
    28    17     8   ar
    29    16    11   ar
    30    27    28    1
    31    20    23    1
@<TRIPOS>MOLECULE
*****
 28 31 0 0 0
SMALL
GASTEIGER

@<TRIPOS>ATOM
      1 C         141.4068  143.7651  161.1681 C.ar    1  UNL1        0.0878
      2 C         140.7701  144.9277  160.4658 C.ar    1  UNL1        0.0091
      3 C         139.8397  145.8370  161.2125 C.ar    1  UNL1        0.0194
      4 C         139.5460  145.5837  162.6615 C.ar    1  UNL1        0.0844
      5 N         140.1826  144.4213  163.3638 N.ar    1  UNL1       -0.2576
      6 C         139.8889  144.1681  164.8128 C.ar    1  UNL1        0.2672
      7 O         138.9586  145.0773  165.5595 O.2     1  UNL1       -0.2665
      8 C         140.5256  143.0055  165.5151 C.ar    1  UNL1        0.0742
      9 C         140.2319  142.7523  166.9641 C.ar    1  UNL1        0.0063
     10 C         140.8686  141.5898  167.6664 C.ar    1  UNL1        0.0003
     11 C         141.7990  140.6805  166.9197 C.ar    1  UNL1        0.0015
     12 C         142.4357  139.5180  167.6220 C.ar    1  UNL1        0.0000
     13 C         143.3660  138.6088  166.8753 C.ar    1  UNL1        0.0000
     14 C         143.6598  138.8620  165.4263 C.ar    1  UNL1        0.0000
     15 C         143.0231  140.0244  164.7240 C.ar    1  UNL1        0.0015
     16 C         142.0927  140.9337  165.4707 C.ar    1  UNL1        0.0179
     17 C         141.4560  142.0963  164.7684 C.ar    1  UNL1        0.0875
     18 N         141.7497  142.3495  163.3194 N.ar    1  UNL1       -0.2276
     19 C         141.1131  143.5119  162.6171 C.ar    1  UNL1        0.1543
     20 N         142.0929  141.3759  160.4127 N.am    1  UNL1       -0.2994
     21 C         142.3371  142.8559  160.4214 C.2     1  UNL1        0.2488
     22 O         143.5118  143.4266  159.6834 O.2     1  UNL1       -0.2700
     23 H         141.3220  141.0013  160.8970 H       1  UNL1        0.1498
     24 C         143.0234  140.4667  159.6659 C.3     1  UNL1        0.1068
     25 C         144.2916  139.9952  160.3136 C.3     1  UNL1        0.0901
     26 C         143.3551  137.9602  161.6294 C.3     1  UNL1        0.0859
     27 N         144.4184  138.5705  160.7652 N.3     1  UNL1       -0.2949
     28 H         144.4772  137.9986  159.9226 H       1  UNL1        0.1233
@<TRIPOS>BOND
     1    26    27    1
     2    27    25    1
     3    25    24    1
     4    24    20    1
     5    20    21   am
     6    21    22    2
     7    21     1    1
     8     1     2   ar
     9     2     3   ar
    10     3     4   ar
    11     4     5   ar
    12     5     6   ar
    13     6     7    2
    14     6     8   ar
    15     8     9   ar
    16     9    10   ar
    17    10    11   ar
    18    11    12   ar
    19    12    13   ar
    20    13    14   ar
    21    14    15   ar
    22    15    16   ar
    23    16    17   ar
    24    17    18   ar
    25    18    19   ar
    26    19     1   ar
    27    19     5   ar
    28    17     8   ar
    29    16    11   ar
    30    27    28    1
    31    20    23    1
@<TRIPOS>MOLECULE
*****
 28 31 0 0 0
SMALL
GASTEIGER

@<TRIPOS>ATOM
      1 C         142.0257  140.3836  166.6250 C.ar    1  UNL1        0.0878
      2 C         142.7173  139.1878  167.2096 C.ar    1  UNL1        0.0091
      3 C         143.7113  138.4208  166.3889 C.ar    1  UNL1        0.0194
      4 C         144.0138  138.8495  164.9837 C.ar    1  UNL1        0.0844
      5 N         143.3222  140.0453  164.3991 N.ar    1  UNL1       -0.2576
      6 C         143.6247  140.4741  162.9939 C.ar    1  UNL1        0.2672
      7 O         144.6187  139.7070  162.1732 O.2     1  UNL1       -0.2665
      8 C         142.9330  141.6699  162.4093 C.ar    1  UNL1        0.0742
      9 C         143.2355  142.0987  161.0041 C.ar    1  UNL1        0.0063
     10 C         142.5439  143.2945  160.4195 C.ar    1  UNL1        0.0003
     11 C         141.5499  144.0616  161.2401 C.ar    1  UNL1        0.0015
     12 C         140.8583  145.2574  160.6556 C.ar    1  UNL1        0.0000
     13 C         139.8643  146.0244  161.4762 C.ar    1  UNL1        0.0000
     14 C         139.5618  145.5956  162.8815 C.ar    1  UNL1        0.0000
     15 C         140.2534  144.3998  163.4660 C.ar    1  UNL1        0.0015
     16 C         141.2474  143.6328  162.6454 C.ar    1  UNL1        0.0179
     17 C         141.9390  142.4370  163.2299 C.ar    1  UNL1        0.0875
     18 N         141.6366  142.0082  164.6352 N.ar    1  UNL1       -0.2276
     19 C         142.3281  140.8124  165.2198 C.ar    1  UNL1        0.1543
     20 N         141.3843  142.5098  167.9733 N.am    1  UNL1       -0.2994
     21 C         141.0316  141.1507  167.4456 C.2     1  UNL1        0.2488
     22 O         139.6849  140.5586  167.7387 O.2     1  UNL1       -0.2700
     23 H         142.2681  142.8984  167.7810 H       1  UNL1        0.1498
     24 C         140.3901  143.2768  168.7940 C.3     1  UNL1        0.1068
     25 C         140.2335  142.9769  170.2554 C.3     1  UNL1        0.0901
     26 C         140.7265  140.5747  171.1134 C.3     1  UNL1        0.0859
     27 N         139.7446  141.6292  170.6962 N.3     1  UNL1       -0.2949
     28 H         139.1255  141.7862  171.4915 H       1  UNL1        0.1233
@<TRIPOS>BOND
     1    26    27    1
     2    27    25    1
     3    25    24    1
     4    24    20    1
     5    20    21   am
     6    21    22    2
     7    21     1    1
     8     1     2   ar
     9     2     3   ar
    10     3     4   ar
    11     4     5   ar
    12     5     6   ar
    13     6     7    2
    14     6     8   ar
    15     8     9   ar
    16     9    10   ar
    17    10    11   ar
    18    11    12   ar
    19    12    13   ar
    20    13    14   ar
    21    14    15   ar
    22    15    16   ar
    23    16    17   ar
    24    17    18   ar
    25    18    19   ar
    26    19     1   ar
    27    19     5   ar
    28    17     8   ar
    29    16    11   ar
    30    27    28    1
    31    20    23    1
@<TRIPOS>MOLECULE
*****
 28 31 0 0 0
SMALL
GASTEIGER

@<TRIPOS>ATOM
      1 C         142.4701  140.1875  162.0130 C.ar    1  UNL1        0.0878
      2 C         142.4880  139.6250  160.6226 C.ar    1  UNL1        0.0091
      3 C         141.4650  138.6077  160.2120 C.ar    1  UNL1        0.0194
      4 C         140.4242  138.1529  161.1917 C.ar    1  UNL1        0.0844
      5 N         140.4064  138.7154  162.5821 N.ar    1  UNL1       -0.2576
      6 C         139.3656  138.2606  163.5618 C.ar    1  UNL1        0.2672
      7 O         138.3426  137.2434  163.1512 O.2     1  UNL1       -0.2665
      8 C         139.3477  138.8232  164.9523 C.ar    1  UNL1        0.0742
      9 C         138.3069  138.3684  165.9320 C.ar    1  UNL1        0.0063
     10 C         138.2891  138.9310  167.3224 C.ar    1  UNL1        0.0003
     11 C         139.3120  139.9483  167.7331 C.ar    1  UNL1        0.0015
     12 C         139.2942  140.5108  169.1235 C.ar    1  UNL1        0.0000
     13 C         140.3171  141.5281  169.5341 C.ar    1  UNL1        0.0000
     14 C         141.3579  141.9829  168.5544 C.ar    1  UNL1        0.0000
     15 C         141.3758  141.4204  167.1640 C.ar    1  UNL1        0.0015
     16 C         140.3528  140.4031  166.7534 C.ar    1  UNL1        0.0179
     17 C         140.3707  139.8405  165.3629 C.ar    1  UNL1        0.0875
     18 N         141.4115  140.2953  164.3832 N.ar    1  UNL1       -0.2276
     19 C         141.4293  139.7328  162.9928 C.ar    1  UNL1        0.1543
     20 N         143.4045  142.6093  161.9045 N.am    1  UNL1       -0.2994
     21 C         143.4931  141.2048  162.4237 C.2     1  UNL1        0.2488
     22 O         144.6047  140.8177  163.3535 O.2     1  UNL1       -0.2700
     23 H         142.6750  142.8635  161.2942 H       1  UNL1        0.1498
     24 C         144.4275  143.6267  162.3152 C.3     1  UNL1        0.1068
     25 C         144.1261  144.5865  163.4278 C.3     1  UNL1        0.0901
     26 C         141.6106  145.1823  163.6866 C.3     1  UNL1        0.0859
     27 N         143.0030  145.5705  163.2858 N.3     1  UNL1       -0.2949
     28 H         143.2537  146.3861  163.8446 H       1  UNL1        0.1233
@<TRIPOS>BOND
     1    26    27    1
     2    27    25    1
     3    25    24    1
     4    24    20    1
     5    20    21   am
     6    21    22    2
     7    21     1    1
     8     1     2   ar
     9     2     3   ar
    10     3     4   ar
    11     4     5   ar
    12     5     6   ar
    13     6     7    2
    14     6     8   ar
    15     8     9   ar
    16     9    10   ar
    17    10    11   ar
    18    11    12   ar
    19    12    13   ar
    20    13    14   ar
    21    14    15   ar
    22    15    16   ar
    23    16    17   ar
    24    17    18   ar
    25    18    19   ar
    26    19     1   ar
    27    19     5   ar
    28    17     8   ar
    29    16    11   ar
    30    27    28    1
    31    20    23    1
@<TRIPOS>MOLECULE
*****
 28 31 0 0 0
SMALL
GASTEIGER

@<TRIPOS>ATOM
      1 C         142.3550  141.7334  162.1354 C.ar    1  UNL1        0.0878
      2 C         143.3290  142.3336  161.1652 C.ar    1  UNL1        0.0091
      3 C         144.4986  143.1256  161.6698 C.ar    1  UNL1        0.0194
      4 C         144.6943  143.3175  163.1446 C.ar    1  UNL1        0.0844
      5 N         143.7204  142.7173  164.1147 N.ar    1  UNL1       -0.2576
      6 C         143.9160  142.9092  165.5895 C.ar    1  UNL1        0.2672
      7 O         145.0856  143.7012  166.0941 O.2     1  UNL1       -0.2665
      8 C         142.9420  142.3090  166.5596 C.ar    1  UNL1        0.0742
      9 C         143.1377  142.5008  168.0344 C.ar    1  UNL1        0.0063
     10 C         142.1638  141.9007  169.0045 C.ar    1  UNL1        0.0003
     11 C         140.9941  141.1086  168.4999 C.ar    1  UNL1        0.0015
     12 C         140.0202  140.5084  169.4701 C.ar    1  UNL1        0.0000
     13 C         138.8506  139.7164  168.9655 C.ar    1  UNL1        0.0000
     14 C         138.6549  139.5245  167.4907 C.ar    1  UNL1        0.0000
     15 C         139.6288  140.1247  166.5206 C.ar    1  UNL1        0.0015
     16 C         140.7984  140.9167  167.0252 C.ar    1  UNL1        0.0179
     17 C         141.7724  141.5169  166.0550 C.ar    1  UNL1        0.0875
     18 N         141.5768  141.3251  164.5803 N.ar    1  UNL1       -0.2276
     19 C         142.5507  141.9252  163.6101 C.ar    1  UNL1        0.1543
     20 N         139.8083  141.5353  161.6610 N.am    1  UNL1       -0.2994
     21 C         141.1854  140.9414  161.6308 C.2     1  UNL1        0.2488
     22 O         141.3928  139.5553  161.0959 O.2     1  UNL1       -0.2700
     23 H         139.6721  142.4449  162.0120 H       1  UNL1        0.1498
     24 C         138.6387  140.7431  161.1564 C.3     1  UNL1        0.1068
     25 C         137.5850  140.2692  162.1130 C.3     1  UNL1        0.0901
     26 C         137.5328  142.0055  164.0450 C.3     1  UNL1        0.0859
     27 N         136.8306  141.2601  162.9490 N.3     1  UNL1       -0.2949
     28 H         136.4565  141.9608  162.3091 H       1  UNL1        0.1233
@<TRIPOS>BOND
     1    26    27    1
     2    27    25    1
     3    25    24    1
     4    24    20    1
     5    20    21   am
     6    21    22    2
     7    21     1    1
     8     1     2   ar
     9     2     3   ar
    10     3     4   ar
    11     4     5   ar
    12     5     6   ar
    13     6     7    2
    14     6     8   ar
    15     8     9   ar
    16     9    10   ar
    17    10    11   ar
    18    11    12   ar
    19    12    13   ar
    20    13    14   ar
    21    14    15   ar
    22    15    16   ar
    23    16    17   ar
    24    17    18   ar
    25    18    19   ar
    26    19     1   ar
    27    19     5   ar
    28    17     8   ar
    29    16    11   ar
    30    27    28    1
    31    20    23    1
