@<TRIPOS>MOLECULE
*****
 24 27 0 0 0
SMALL
GASTEIGER

@<TRIPOS>ATOM
      1 O         142.8162  141.9305  164.7340 O.2     1  UNL1       -0.2448
      2 C         142.1931  140.6454  165.1927 C.2     1  UNL1        0.3428
      3 C         142.3523  140.2011  166.6165 C.2     1  UNL1        0.0966
      4 C         143.1214  139.0015  167.0850 C.2     1  UNL1        0.1049
      5 N         143.0147  138.9373  168.5798 N.2     1  UNL1       -0.2475
      6 C         142.1796  140.0972  169.0352 C.2     1  UNL1        0.0676
      7 C         141.7392  140.5431  170.3979 C.3     1  UNL1        0.1093
      8 C         140.8893  141.7701  170.5473 C.2     1  UNL1        0.1180
      9 O         140.4488  142.2160  171.9101 O.2     1  UNL1       -0.5094
     10 C         140.4799  142.5512  169.3339 C.2     1  UNL1        0.0439
     11 C         140.9204  142.1052  167.9711 C.2     1  UNL1        0.0617
     12 CL        140.5110  142.8863  166.7577 Cl      1  UNL1       -0.0821
     13 C         141.7702  140.8783  167.8218 C.2     1  UNL1        0.0324
     14 H         140.7045  141.7281  172.6680 H       1  UNL1        0.2917
     15 O         141.4109  139.8048  164.2276 O.3     1  UNL1       -0.4454
     16 C         139.9141  139.8967  164.1949 C.3     1  UNL1        0.2087
     17 C         139.0935  139.1266  165.1865 C.3     1  UNL1        0.0445
     18 C         138.8158  137.6700  164.9600 C.3     1  UNL1        0.0210
     19 C         137.9951  136.9000  165.9518 C.3     1  UNL1        0.0722
     20 N         137.4522  137.5864  167.1700 N.3     1  UNL1       -0.2727
     21 C         137.7299  139.0430  167.3964 C.3     1  UNL1        0.0722
     22 C         138.5505  139.8131  166.4047 C.3     1  UNL1        0.0210
     23 C         137.8966  138.0499  166.6546 C.3     1  UNL1        0.0722
     24 C         138.6387  138.7463  165.7580 C.3     1  UNL1        0.0210
@<TRIPOS>BOND
     1     1     2    2
     2     2    15    1
     3    15    16    1
     4    16    17    1
     5    17    18    1
     6    18    19    1
     7    19    20    1
     8    20    21    1
     9    21    22    1
    10    20    23    1
    11    23    24    1
    12     2     3    1
    13     3     4    2
    14     4     5    1
    15     5     6    2
    16     6     7    1
    17     7     8    1
    18     8     9    1
    19     8    10    2
    20    10    11    1
    21    11    12    1
    22    11    13    2
    23    22    17    1
    24    13     3    1
    25    24    17    1
    26    13     6    1
    27     9    14    1
@<TRIPOS>MOLECULE
*****
 24 27 0 0 0
SMALL
GASTEIGER

@<TRIPOS>ATOM
      1 O         144.1038  137.9166  166.7074 O.2     1  UNL1       -0.2448
      2 C         142.8494  138.5331  166.1630 C.2     1  UNL1        0.3428
      3 C         142.3257  138.1090  164.8229 C.2     1  UNL1        0.0966
      4 C         141.1590  137.1980  164.5803 C.2     1  UNL1        0.1049
      5 N         140.9891  137.0475  163.0976 N.2     1  UNL1       -0.2475
      6 C         142.0506  137.8655  162.4238 C.2     1  UNL1        0.0676
      7 C         142.3718  138.0976  160.9772 C.3     1  UNL1        0.1093
      8 C         143.5191  138.9860  160.5968 C.2     1  UNL1        0.1180
      9 O         143.8403  139.2182  159.1501 O.2     1  UNL1       -0.5094
     10 C         144.3452  139.6421  161.6631 C.2     1  UNL1        0.0439
     11 C         144.0240  139.4098  163.1099 C.2     1  UNL1        0.0617
     12 CL        144.8501  140.0659  164.1762 Cl      1  UNL1       -0.0821
     13 C         142.8768  138.5216  163.4902 C.2     1  UNL1        0.0324
     14 H         143.3242  138.8083  158.4840 H       1  UNL1        0.2917
     15 O         142.1187  139.5738  166.9587 O.3     1  UNL1       -0.4454
     16 C         142.6431  140.9779  167.0178 C.3     1  UNL1        0.2087
     17 C         142.2454  141.8800  168.1483 C.3     1  UNL1        0.0445
     18 C         143.2075  142.1491  169.2672 C.3     1  UNL1        0.0210
     19 C         142.8097  143.0512  170.3977 C.3     1  UNL1        0.0722
     20 N         141.4499  143.6843  170.4092 N.3     1  UNL1       -0.2727
     21 C         140.4879  143.4153  169.2902 C.3     1  UNL1        0.0722
     22 C         140.8856  142.5132  168.1598 C.3     1  UNL1        0.0210
     23 C         141.6228  143.1971  169.7684 C.3     1  UNL1        0.0722
     24 C         141.9823  142.3814  168.7461 C.3     1  UNL1        0.0210
@<TRIPOS>BOND
     1     1     2    2
     2     2    15    1
     3    15    16    1
     4    16    17    1
     5    17    18    1
     6    18    19    1
     7    19    20    1
     8    20    21    1
     9    21    22    1
    10    20    23    1
    11    23    24    1
    12     2     3    1
    13     3     4    2
    14     4     5    1
    15     5     6    2
    16     6     7    1
    17     7     8    1
    18     8     9    1
    19     8    10    2
    20    10    11    1
    21    11    12    1
    22    11    13    2
    23    22    17    1
    24    13     3    1
    25    24    17    1
    26    13     6    1
    27     9    14    1
@<TRIPOS>MOLECULE
*****
 24 27 0 0 0
SMALL
GASTEIGER

@<TRIPOS>ATOM
      1 O         137.7632  140.3997  163.4871 O.2     1  UNL1       -0.2448
      2 C         138.5615  139.3858  164.2517 C.2     1  UNL1        0.3428
      3 C         138.7041  139.5105  165.7397 C.2     1  UNL1        0.0966
      4 C         137.9336  138.7358  166.7673 C.2     1  UNL1        0.1049
      5 N         138.3956  139.1784  168.1240 N.2     1  UNL1       -0.2475
      6 C         139.4517  140.2267  167.9349 C.2     1  UNL1        0.0676
      7 C         140.2643  141.0208  168.9141 C.3     1  UNL1        0.1093
      8 C         141.2677  142.0202  168.4198 C.2     1  UNL1        0.1180
      9 O         142.0804  142.8144  169.3990 O.2     1  UNL1       -0.5094
     10 C         141.4585  142.2255  166.9462 C.2     1  UNL1        0.0439
     11 C         140.6457  141.4313  165.9669 C.2     1  UNL1        0.0617
     12 CL        140.8365  141.6366  164.4933 Cl      1  UNL1       -0.0821
     13 C         139.6424  140.4319  166.4613 C.2     1  UNL1        0.0324
     14 H         141.9612  142.6861  170.3195 H       1  UNL1        0.2917
     15 O         139.2172  138.2471  163.5283 O.3     1  UNL1       -0.4454
     16 C         140.3344  137.4878  164.1807 C.3     1  UNL1        0.2087
     17 C         141.7086  138.0853  164.2475 C.3     1  UNL1        0.0445
     18 C         142.4240  138.4639  162.9846 C.3     1  UNL1        0.0210
     19 C         143.7982  139.0615  163.0515 C.3     1  UNL1        0.0722
     20 N         144.4569  139.2805  164.3812 N.3     1  UNL1       -0.2727
     21 C         143.7415  138.9019  165.6441 C.3     1  UNL1        0.0722
     22 C         142.3673  138.3043  165.5772 C.3     1  UNL1        0.0210
     23 C         143.7030  138.9500  164.3949 C.3     1  UNL1        0.0722
     24 C         142.4604  138.4096  164.3345 C.3     1  UNL1        0.0210
@<TRIPOS>BOND
     1     1     2    2
     2     2    15    1
     3    15    16    1
     4    16    17    1
     5    17    18    1
     6    18    19    1
     7    19    20    1
     8    20    21    1
     9    21    22    1
    10    20    23    1
    11    23    24    1
    12     2     3    1
    13     3     4    2
    14     4     5    1
    15     5     6    2
    16     6     7    1
    17     7     8    1
    18     8     9    1
    19     8    10    2
    20    10    11    1
    21    11    12    1
    22    11    13    2
    23    22    17    1
    24    13     3    1
    25    24    17    1
    26    13     6    1
    27     9    14    1
@<TRIPOS>MOLECULE
*****
 24 27 0 0 0
SMALL
GASTEIGER

@<TRIPOS>ATOM
      1 O         138.3205  140.9864  165.1123 O.2     1  UNL1       -0.2448
      2 C         138.9892  139.9073  165.9113 C.2     1  UNL1        0.3428
      3 C         140.3411  140.1492  166.5146 C.2     1  UNL1        0.0966
      4 C         141.6211  140.3487  165.7585 C.2     1  UNL1        0.1049
      5 N         142.7213  140.5568  166.7565 N.2     1  UNL1       -0.2475
      6 C         142.1213  140.4859  168.1295 C.2     1  UNL1        0.0676
      7 C         142.7244  140.6183  169.4965 C.3     1  UNL1        0.1093
      8 C         141.8564  140.4987  170.7140 C.2     1  UNL1        0.1180
      9 O         142.4595  140.6310  172.0810 O.2     1  UNL1       -0.5094
     10 C         140.3853  140.2467  170.5645 C.2     1  UNL1        0.0439
     11 C         139.7822  140.1144  169.1974 C.2     1  UNL1        0.0617
     12 CL        138.3111  139.8625  169.0478 Cl      1  UNL1       -0.0821
     13 C         140.6502  140.2340  167.9799 C.2     1  UNL1        0.0324
     14 H         143.3785  140.7884  172.1744 H       1  UNL1        0.2917
     15 O         138.3061  138.5863  166.1069 O.3     1  UNL1       -0.4454
     16 C         138.7676  137.3823  165.3403 C.3     1  UNL1        0.2087
     17 C         139.4244  137.5515  164.0025 C.3     1  UNL1        0.0445
     18 C         138.5990  137.9055  162.8011 C.3     1  UNL1        0.0210
     19 C         139.2559  138.0746  161.4632 C.3     1  UNL1        0.0722
     20 N         140.7382  137.8898  161.3268 N.3     1  UNL1       -0.2727
     21 C         141.5636  137.5359  162.5282 C.3     1  UNL1        0.0722
     22 C         140.9067  137.3667  163.8661 C.3     1  UNL1        0.0210
     23 C         140.4230  137.7867  162.0804 C.3     1  UNL1        0.0722
     24 C         139.8292  137.6337  163.2902 C.3     1  UNL1        0.0210
@<TRIPOS>BOND
     1     1     2    2
     2     2    15    1
     3    15    16    1
     4    16    17    1
     5    17    18    1
     6    18    19    1
     7    19    20    1
     8    20    21    1
     9    21    22    1
    10    20    23    1
    11    23    24    1
    12     2     3    1
    13     3     4    2
    14     4     5    1
    15     5     6    2
    16     6     7    1
    17     7     8    1
    18     8     9    1
    19     8    10    2
    20    10    11    1
    21    11    12    1
    22    11    13    2
    23    22    17    1
    24    13     3    1
    25    24    17    1
    26    13     6    1
    27     9    14    1
@<TRIPOS>MOLECULE
*****
 24 27 0 0 0
SMALL
GASTEIGER

@<TRIPOS>ATOM
      1 O         142.9856  140.7701  166.2379 O.2     1  UNL1       -0.2448
      2 C         143.2852  142.2392  166.2812 C.2     1  UNL1        0.3428
      3 C         143.1809  143.0631  165.0321 C.2     1  UNL1        0.0966
      4 C         144.3151  143.4339  164.1232 C.2     1  UNL1        0.1049
      5 N         143.7592  144.2608  163.0020 N.2     1  UNL1       -0.2475
      6 C         142.2815  144.4011  163.2179 C.2     1  UNL1        0.0676
      7 C         141.2152  145.1072  162.4341 C.3     1  UNL1        0.1093
      8 C         139.7914  145.0732  162.9050 C.2     1  UNL1        0.1180
      9 O         138.7251  145.7793  162.1212 O.2     1  UNL1       -0.5094
     10 C         139.4340  144.3329  164.1597 C.2     1  UNL1        0.0439
     11 C         140.5004  143.6268  164.9435 C.2     1  UNL1        0.0617
     12 CL        140.1429  142.8866  166.1983 Cl      1  UNL1       -0.0821
     13 C         141.9241  143.6609  164.4726 C.2     1  UNL1        0.0324
     14 H         138.9484  146.2417  161.3375 H       1  UNL1        0.2917
     15 O         143.6891  142.8844  167.5737 O.3     1  UNL1       -0.4454
     16 C         143.4151  142.1917  168.8757 C.3     1  UNL1        0.2087
     17 C         142.0052  142.0488  169.3671 C.3     1  UNL1        0.0445
     18 C         141.3088  140.7236  169.2732 C.3     1  UNL1        0.0210
     19 C         139.8988  140.5809  169.7646 C.3     1  UNL1        0.0722
     20 N         139.1851  141.7633  170.3498 N.3     1  UNL1       -0.2727
     21 C         139.8815  143.0886  170.4437 C.3     1  UNL1        0.0722
     22 C         141.2915  143.2313  169.9523 C.3     1  UNL1        0.0210
     23 C         139.9573  141.8902  170.0938 C.3     1  UNL1        0.0722
     24 C         141.2323  142.0194  169.6495 C.3     1  UNL1        0.0210
@<TRIPOS>BOND
     1     1     2    2
     2     2    15    1
     3    15    16    1
     4    16    17    1
     5    17    18    1
     6    18    19    1
     7    19    20    1
     8    20    21    1
     9    21    22    1
    10    20    23    1
    11    23    24    1
    12     2     3    1
    13     3     4    2
    14     4     5    1
    15     5     6    2
    16     6     7    1
    17     7     8    1
    18     8     9    1
    19     8    10    2
    20    10    11    1
    21    11    12    1
    22    11    13    2
    23    22    17    1
    24    13     3    1
    25    24    17    1
    26    13     6    1
    27     9    14    1
@<TRIPOS>MOLECULE
*****
 24 27 0 0 0
SMALL
GASTEIGER

@<TRIPOS>ATOM
      1 O         142.7395  137.9379  165.3384 O.2     1  UNL1       -0.2448
      2 C         142.1685  138.9797  166.2542 C.2     1  UNL1        0.3428
      3 C         140.8812  139.6642  165.9014 C.2     1  UNL1        0.0966
      4 C         139.5293  139.0181  165.8325 C.2     1  UNL1        0.1049
      5 N         138.5324  140.0695  165.4441 N.2     1  UNL1       -0.2475
      6 C         139.2683  141.3653  165.2729 C.2     1  UNL1        0.0676
      7 C         138.8041  142.7410  164.8961 C.3     1  UNL1        0.1093
      8 C         139.7916  143.8662  164.8020 C.2     1  UNL1        0.1180
      9 O         139.3273  145.2419  164.4252 O.2     1  UNL1       -0.5094
     10 C         141.2432  143.6157  165.0846 C.2     1  UNL1        0.0439
     11 C         141.7074  142.2400  165.4613 C.2     1  UNL1        0.0617
     12 CL        143.1591  141.9894  165.7439 Cl      1  UNL1       -0.0821
     13 C         140.7200  141.1148  165.5555 C.2     1  UNL1        0.0324
     14 H         138.4205  145.3984  164.2487 H       1  UNL1        0.2917
     15 O         142.8848  139.3371  167.5227 O.3     1  UNL1       -0.4454
     16 C         142.1039  139.6071  168.7746 C.3     1  UNL1        0.2087
     17 C         141.9250  141.0158  169.2579 C.3     1  UNL1        0.0445
     18 C         140.6216  141.7246  169.0374 C.3     1  UNL1        0.0210
     19 C         140.4428  143.1333  169.5207 C.3     1  UNL1        0.0722
     20 N         141.5675  143.8332  170.2245 N.3     1  UNL1       -0.2727
     21 C         142.8709  143.1243  170.4450 C.3     1  UNL1        0.0722
     22 C         143.0497  141.7157  169.9616 C.3     1  UNL1        0.0210
     23 C         141.7125  143.0612  169.9776 C.3     1  UNL1        0.0722
     24 C         141.8743  141.7874  169.5407 C.3     1  UNL1        0.0210
@<TRIPOS>BOND
     1     1     2    2
     2     2    15    1
     3    15    16    1
     4    16    17    1
     5    17    18    1
     6    18    19    1
     7    19    20    1
     8    20    21    1
     9    21    22    1
    10    20    23    1
    11    23    24    1
    12     2     3    1
    13     3     4    2
    14     4     5    1
    15     5     6    2
    16     6     7    1
    17     7     8    1
    18     8     9    1
    19     8    10    2
    20    10    11    1
    21    11    12    1
    22    11    13    2
    23    22    17    1
    24    13     3    1
    25    24    17    1
    26    13     6    1
    27     9    14    1
@<TRIPOS>MOLECULE
*****
 24 27 0 0 0
SMALL
GASTEIGER

@<TRIPOS>ATOM
      1 O         140.7477  139.3672  163.6286 O.2     1  UNL1       -0.2448
      2 C         139.3422  139.5747  164.1097 C.2     1  UNL1        0.3428
      3 C         139.0283  139.4772  165.5733 C.2     1  UNL1        0.0966
      4 C         138.0895  138.4958  166.2102 C.2     1  UNL1        0.1049
      5 N         138.0791  138.7561  167.6874 N.2     1  UNL1       -0.2475
      6 C         139.0115  139.8982  167.9634 C.2     1  UNL1        0.0676
      7 C         139.4021  140.5900  169.2358 C.3     1  UNL1        0.1093
      8 C         140.3794  141.7275  169.2015 C.2     1  UNL1        0.1180
      9 O         140.7700  142.4193  170.4738 O.2     1  UNL1       -0.5094
     10 C         140.9660  142.1732  167.8949 C.2     1  UNL1        0.0439
     11 C         140.5753  141.4813  166.6225 C.2     1  UNL1        0.0617
     12 CL        141.1619  141.9270  165.3159 Cl      1  UNL1       -0.0821
     13 C         139.5981  140.3439  166.6568 C.2     1  UNL1        0.0324
     14 H         140.4035  142.1409  171.2900 H       1  UNL1        0.2917
     15 O         138.2505  139.8797  163.1272 O.3     1  UNL1       -0.4454
     16 C         137.3860  141.0905  163.3184 C.3     1  UNL1        0.2087
     17 C         138.0147  142.4422  163.4849 C.3     1  UNL1        0.0445
     18 C         138.8114  143.0420  162.3645 C.3     1  UNL1        0.0210
     19 C         139.4400  144.3937  162.5310 C.3     1  UNL1        0.0722
     20 N         139.2720  145.1455  163.8181 N.3     1  UNL1       -0.2727
     21 C         138.4753  144.5457  164.9386 C.3     1  UNL1        0.0722
     22 C         137.8466  143.1940  164.7720 C.3     1  UNL1        0.0210
     23 C         138.9089  144.4079  163.7735 C.3     1  UNL1        0.0722
     24 C         138.3404  143.1857  163.6230 C.3     1  UNL1        0.0210
@<TRIPOS>BOND
     1     1     2    2
     2     2    15    1
     3    15    16    1
     4    16    17    1
     5    17    18    1
     6    18    19    1
     7    19    20    1
     8    20    21    1
     9    21    22    1
    10    20    23    1
    11    23    24    1
    12     2     3    1
    13     3     4    2
    14     4     5    1
    15     5     6    2
    16     6     7    1
    17     7     8    1
    18     8     9    1
    19     8    10    2
    20    10    11    1
    21    11    12    1
    22    11    13    2
    23    22    17    1
    24    13     3    1
    25    24    17    1
    26    13     6    1
    27     9    14    1
@<TRIPOS>MOLECULE
*****
 24 27 0 0 0
SMALL
GASTEIGER

@<TRIPOS>ATOM
      1 O         143.6454  142.6766  167.9564 O.2     1  UNL1       -0.2448
      2 C         142.8256  141.9361  166.9417 C.2     1  UNL1        0.3428
      3 C         141.8031  142.6686  166.1244 C.2     1  UNL1        0.0966
      4 C         140.3702  142.8976  166.5043 C.2     1  UNL1        0.1049
      5 N         139.7156  143.6713  165.3984 N.2     1  UNL1       -0.2475
      6 C         140.7439  143.9204  164.3351 C.2     1  UNL1        0.0676
      7 C         140.6721  144.6314  163.0164 C.3     1  UNL1        0.1093
      8 C         141.8906  144.7228  162.1462 C.2     1  UNL1        0.1180
      9 O         141.8188  145.4338  160.8274 O.2     1  UNL1       -0.5094
     10 C         143.1808  144.1031  162.5950 C.2     1  UNL1        0.0439
     11 C         143.2525  143.3920  163.9138 C.2     1  UNL1        0.0617
     12 CL        144.5427  142.7724  164.3626 Cl      1  UNL1       -0.0821
     13 C         142.0341  143.3007  164.7839 C.2     1  UNL1        0.0324
     14 H         141.0129  145.8209  160.5471 H       1  UNL1        0.2917
     15 O         143.0284  140.4630  166.7443 O.3     1  UNL1       -0.4454
     16 C         142.5479  139.4938  167.7835 C.3     1  UNL1        0.2087
     17 C         141.5693  139.9395  168.8293 C.3     1  UNL1        0.0445
     18 C         142.0606  140.3884  170.1735 C.3     1  UNL1        0.0210
     19 C         141.0819  140.8341  171.2193 C.3     1  UNL1        0.0722
     20 N         139.6119  140.8308  170.9207 N.3     1  UNL1       -0.2727
     21 C         139.1206  140.3818  169.5765 C.3     1  UNL1        0.0722
     22 C         140.0993  139.9362  168.5307 C.3     1  UNL1        0.0210
     23 C         140.1101  140.5779  170.3160 C.3     1  UNL1        0.0722
     24 C         140.9949  140.1749  169.3703 C.3     1  UNL1        0.0210
@<TRIPOS>BOND
     1     1     2    2
     2     2    15    1
     3    15    16    1
     4    16    17    1
     5    17    18    1
     6    18    19    1
     7    19    20    1
     8    20    21    1
     9    21    22    1
    10    20    23    1
    11    23    24    1
    12     2     3    1
    13     3     4    2
    14     4     5    1
    15     5     6    2
    16     6     7    1
    17     7     8    1
    18     8     9    1
    19     8    10    2
    20    10    11    1
    21    11    12    1
    22    11    13    2
    23    22    17    1
    24    13     3    1
    25    24    17    1
    26    13     6    1
    27     9    14    1
@<TRIPOS>MOLECULE
*****
 24 27 0 0 0
SMALL
GASTEIGER

@<TRIPOS>ATOM
      1 O         140.2573  137.6278  164.9911 O.2     1  UNL1       -0.2448
      2 C         140.0353  139.1078  165.0920 C.2     1  UNL1        0.3428
      3 C         140.8881  139.9334  166.0091 C.2     1  UNL1        0.0966
      4 C         142.2105  140.5520  165.6645 C.2     1  UNL1        0.1049
      5 N         142.7079  141.2862  166.8743 N.2     1  UNL1       -0.2475
      6 C         141.6931  141.1213  167.9665 C.2     1  UNL1        0.0676
      7 C         141.6478  141.6245  169.3788 C.3     1  UNL1        0.1093
      8 C         140.4778  141.2915  170.2565 C.2     1  UNL1        0.1180
      9 O         140.4325  141.7947  171.6688 O.2     1  UNL1       -0.5094
     10 C         139.3530  140.4555  169.7217 C.2     1  UNL1        0.0439
     11 C         139.3983  139.9523  168.3093 C.2     1  UNL1        0.0617
     12 CL        138.2736  139.1162  167.7746 Cl      1  UNL1       -0.0821
     13 C         140.5683  140.2852  167.4317 C.2     1  UNL1        0.0324
     14 H         141.1351  142.3170  172.0029 H       1  UNL1        0.2917
     15 O         138.9604  139.7623  164.2757 O.3     1  UNL1       -0.4454
     16 C         138.1352  140.8658  164.8687 C.3     1  UNL1        0.2087
     17 C         138.3859  142.2889  164.4665 C.3     1  UNL1        0.0445
     18 C         137.6510  142.8792  163.2998 C.3     1  UNL1        0.0210
     19 C         137.9017  144.3024  162.8977 C.3     1  UNL1        0.0722
     20 N         138.8875  145.1352  163.6623 N.3     1  UNL1       -0.2727
     21 C         139.6224  144.5449  164.8291 C.3     1  UNL1        0.0722
     22 C         139.3716  143.1218  165.2312 C.3     1  UNL1        0.0210
     23 C         138.7834  144.3602  163.9201 C.3     1  UNL1        0.0722
     24 C         138.5568  143.0734  164.2838 C.3     1  UNL1        0.0210
@<TRIPOS>BOND
     1     1     2    2
     2     2    15    1
     3    15    16    1
     4    16    17    1
     5    17    18    1
     6    18    19    1
     7    19    20    1
     8    20    21    1
     9    21    22    1
    10    20    23    1
    11    23    24    1
    12     2     3    1
    13     3     4    2
    14     4     5    1
    15     5     6    2
    16     6     7    1
    17     7     8    1
    18     8     9    1
    19     8    10    2
    20    10    11    1
    21    11    12    1
    22    11    13    2
    23    22    17    1
    24    13     3    1
    25    24    17    1
    26    13     6    1
    27     9    14    1
