@<TRIPOS>MOLECULE
*****
 27 29 0 0 0
SMALL
GASTEIGER

@<TRIPOS>ATOM
      1 C         143.7421  143.4173  162.2460 C.ar    1  UNL1        0.2331
      2 C         144.0133  144.4419  163.3075 C.ar    1  UNL1        0.0673
      3 C         142.9072  145.3331  163.7898 C.ar    1  UNL1        0.0116
      4 C         141.5300  145.1996  163.2106 C.ar    1  UNL1        0.0673
      5 C         141.2588  144.1750  162.1491 C.ar    1  UNL1        0.2331
      6 N         142.3648  143.2839  161.6669 N.ar    1  UNL1       -0.1663
      7 C         142.0937  142.2592  160.6054 C.3     1  UNL1        0.4077
      8 C         144.8481  142.5261  161.7638 C.3     1  UNL1        0.2392
      9 O         145.3729  141.4356  162.6499 O.3     1  UNL1       -0.3385
     10 C         144.5035  140.2613  162.9893 C.3     1  UNL1        0.1693
     11 C         142.2219  139.7145  168.5115 C.3     1  UNL1        0.0310
     12 C         142.7923  139.8512  167.1310 C.ar    1  UNL1       -0.0219
     13 C         143.2480  138.6331  166.3838 C.ar    1  UNL1       -0.0045
     14 C         143.8184  138.7698  165.0032 C.ar    1  UNL1       -0.0022
     15 C         143.9331  140.1246  164.3699 C.ar    1  UNL1        0.0073
     16 C         143.4774  141.3428  165.1171 C.ar    1  UNL1       -0.0022
     17 C         142.9070  141.2061  166.4976 C.ar    1  UNL1       -0.0045
     18 C         139.8816  144.0416  161.5699 C.3     1  UNL1        0.2392
     19 O         138.7504  144.8515  162.1307 O.3     1  UNL1       -0.3385
     20 C         137.7770  144.2219  163.0826 C.3     1  UNL1        0.1693
     21 C         138.1613  142.9853  163.8395 C.ar    1  UNL1        0.0073
     22 C         137.6109  141.6522  163.4271 C.ar    1  UNL1       -0.0022
     23 C         137.9952  140.4155  164.1840 C.ar    1  UNL1       -0.0045
     24 C         138.9298  140.5119  165.3533 C.ar    1  UNL1       -0.0219
     25 C         139.3141  139.2752  166.1102 C.3     1  UNL1        0.0310
     26 C         139.4802  141.8450  165.7657 C.ar    1  UNL1       -0.0045
     27 C         139.0959  143.0816  165.0088 C.ar    1  UNL1       -0.0022
@<TRIPOS>UNITY_ATOM_ATTR
6 1
charge 1
@<TRIPOS>BOND
     1    11    12    1
     2    12    13   ar
     3    13    14   ar
     4    14    15   ar
     5    15    10    1
     6    10     9    1
     7     9     8    1
     8     8     1    1
     9     1     2   ar
    10     2     3   ar
    11     3     4   ar
    12     4     5   ar
    13     5    18    1
    14    18    19    1
    15    19    20    1
    16    20    21    1
    17    21    22   ar
    18    22    23   ar
    19    23    24   ar
    20    24    25    1
    21    24    26   ar
    22    26    27   ar
    23     5     6   ar
    24     6     7    1
    25    15    16   ar
    26    16    17   ar
    27    17    12   ar
    28     6     1   ar
    29    27    21   ar
@<TRIPOS>MOLECULE
*****
 27 29 0 0 0
SMALL
GASTEIGER

@<TRIPOS>ATOM
      1 C         141.9504  137.9649  163.6017 C.ar    1  UNL1        0.2331
      2 C         141.9089  137.8559  162.1063 C.ar    1  UNL1        0.0673
      3 C         142.9764  138.5061  161.2769 C.ar    1  UNL1        0.0116
      4 C         144.0855  139.2652  161.9431 C.ar    1  UNL1        0.0673
      5 C         144.1269  139.3742  163.4386 C.ar    1  UNL1        0.2331
      6 N         143.0594  138.7240  164.2679 N.ar    1  UNL1       -0.1663
      7 C         143.1009  138.8329  165.7634 C.3     1  UNL1        0.4077
      8 C         140.8829  137.3146  164.4310 C.3     1  UNL1        0.2392
      9 O         139.7213  138.1239  164.9268 O.3     1  UNL1       -0.3385
     10 C         139.0438  139.1015  164.0128 C.3     1  UNL1        0.1693
     11 C         138.7752  144.9082  165.4992 C.3     1  UNL1        0.0310
     12 C         138.8424  143.4565  165.1276 C.ar    1  UNL1       -0.0219
     13 C         139.8703  142.5669  165.7614 C.ar    1  UNL1       -0.0045
     14 C         139.9375  141.1152  165.3898 C.ar    1  UNL1       -0.0022
     15 C         138.9767  140.5532  164.3844 C.ar    1  UNL1        0.0073
     16 C         137.9487  141.4428  163.7506 C.ar    1  UNL1       -0.0022
     17 C         137.8815  142.8945  164.1222 C.ar    1  UNL1       -0.0045
     18 C         145.2359  140.1333  164.1048 C.3     1  UNL1        0.2392
     19 O         145.3300  141.6214  163.9412 O.3     1  UNL1       -0.3385
     20 C         144.3933  142.5194  164.6937 C.3     1  UNL1        0.1693
     21 C         143.2720  143.2068  163.9727 C.ar    1  UNL1        0.0073
     22 C         142.9962  144.6592  164.2262 C.ar    1  UNL1       -0.0022
     23 C         141.8748  145.3468  163.5052 C.ar    1  UNL1       -0.0045
     24 C         141.0293  144.5818  162.5305 C.ar    1  UNL1       -0.0219
     25 C         139.9079  145.2692  161.8095 C.3     1  UNL1        0.0310
     26 C         141.3051  143.1293  162.2770 C.ar    1  UNL1       -0.0045
     27 C         142.4265  142.4418  162.9980 C.ar    1  UNL1       -0.0022
@<TRIPOS>UNITY_ATOM_ATTR
6 1
charge 1
@<TRIPOS>BOND
     1    11    12    1
     2    12    13   ar
     3    13    14   ar
     4    14    15   ar
     5    15    10    1
     6    10     9    1
     7     9     8    1
     8     8     1    1
     9     1     2   ar
    10     2     3   ar
    11     3     4   ar
    12     4     5   ar
    13     5    18    1
    14    18    19    1
    15    19    20    1
    16    20    21    1
    17    21    22   ar
    18    22    23   ar
    19    23    24   ar
    20    24    25    1
    21    24    26   ar
    22    26    27   ar
    23     5     6   ar
    24     6     7    1
    25    15    16   ar
    26    16    17   ar
    27    17    12   ar
    28     6     1   ar
    29    27    21   ar
@<TRIPOS>MOLECULE
*****
 27 29 0 0 0
SMALL
GASTEIGER

@<TRIPOS>ATOM
      1 C         139.3699  138.0063  162.4060 C.ar    1  UNL1        0.2331
      2 C         139.1335  137.6913  163.8533 C.ar    1  UNL1        0.0673
      3 C         140.2961  137.5599  164.7920 C.ar    1  UNL1        0.0116
      4 C         141.6952  137.7435  164.2832 C.ar    1  UNL1        0.0673
      5 C         141.9316  138.0585  162.8358 C.ar    1  UNL1        0.2331
      6 N         140.7690  138.1899  161.8972 N.ar    1  UNL1       -0.1663
      7 C         141.0055  138.5049  160.4498 C.3     1  UNL1        0.4077
      8 C         138.2073  138.1376  161.4673 C.3     1  UNL1        0.2392
      9 O         137.3327  139.3550  161.5225 O.3     1  UNL1       -0.3385
     10 C         137.9031  140.7037  161.1974 C.3     1  UNL1        0.1693
     11 C         138.4883  144.8327  165.5111 C.3     1  UNL1        0.0310
     12 C         138.3420  143.8005  164.4327 C.ar    1  UNL1       -0.0219
     13 C         138.2640  144.2231  162.9956 C.ar    1  UNL1       -0.0045
     14 C         138.1177  143.1908  161.9171 C.ar    1  UNL1       -0.0022
     15 C         138.0494  141.7359  162.2758 C.ar    1  UNL1        0.0073
     16 C         138.1274  141.3134  163.7129 C.ar    1  UNL1       -0.0022
     17 C         138.2737  142.3456  164.7913 C.ar    1  UNL1       -0.0045
     18 C         143.3307  138.2422  162.3271 C.3     1  UNL1        0.2392
     19 O         144.2790  139.1511  163.0516 O.3     1  UNL1       -0.3385
     20 C         144.6988  140.4487  162.4270 C.3     1  UNL1        0.1693
     21 C         143.9487  141.7093  162.7406 C.ar    1  UNL1        0.0073
     22 C         142.5685  141.6355  163.3232 C.ar    1  UNL1       -0.0022
     23 C         141.8184  142.8961  163.6368 C.ar    1  UNL1       -0.0045
     24 C         142.4486  144.2305  163.3679 C.ar    1  UNL1       -0.0219
     25 C         141.6986  145.4910  163.6815 C.3     1  UNL1        0.0310
     26 C         143.8290  144.3042  162.7853 C.ar    1  UNL1       -0.0045
     27 C         144.5790  143.0436  162.4717 C.ar    1  UNL1       -0.0022
@<TRIPOS>UNITY_ATOM_ATTR
6 1
charge 1
@<TRIPOS>BOND
     1    11    12    1
     2    12    13   ar
     3    13    14   ar
     4    14    15   ar
     5    15    10    1
     6    10     9    1
     7     9     8    1
     8     8     1    1
     9     1     2   ar
    10     2     3   ar
    11     3     4   ar
    12     4     5   ar
    13     5    18    1
    14    18    19    1
    15    19    20    1
    16    20    21    1
    17    21    22   ar
    18    22    23   ar
    19    23    24   ar
    20    24    25    1
    21    24    26   ar
    22    26    27   ar
    23     5     6   ar
    24     6     7    1
    25    15    16   ar
    26    16    17   ar
    27    17    12   ar
    28     6     1   ar
    29    27    21   ar
@<TRIPOS>MOLECULE
*****
 27 29 0 0 0
SMALL
GASTEIGER

@<TRIPOS>ATOM
      1 C         143.7737  143.5107  162.0832 C.ar    1  UNL1        0.2331
      2 C         143.9757  144.4352  163.2470 C.ar    1  UNL1        0.0673
      3 C         142.8242  145.2380  163.7758 C.ar    1  UNL1        0.0116
      4 C         141.4707  145.1163  163.1407 C.ar    1  UNL1        0.0673
      5 C         141.2688  144.1918  161.9769 C.ar    1  UNL1        0.2331
      6 N         142.4203  143.3890  161.4481 N.ar    1  UNL1       -0.1663
      7 C         142.2183  142.4645  160.2842 C.3     1  UNL1        0.4077
      8 C         144.9252  142.7079  161.5544 C.3     1  UNL1        0.2392
      9 O         145.3820  141.4803  162.2854 O.3     1  UNL1       -0.3385
     10 C         144.8923  141.2105  163.6772 C.3     1  UNL1        0.1693
     11 C         140.6184  137.1041  164.6104 C.3     1  UNL1        0.0310
     12 C         141.6868  138.1307  164.3771 C.ar    1  UNL1       -0.0219
     13 C         141.8140  138.7893  163.0355 C.ar    1  UNL1       -0.0045
     14 C         142.8825  139.8159  162.8022 C.ar    1  UNL1       -0.0022
     15 C         143.8238  140.1839  163.9105 C.ar    1  UNL1        0.0073
     16 C         143.6967  139.5253  165.2522 C.ar    1  UNL1       -0.0022
     17 C         142.6282  138.4987  165.4855 C.ar    1  UNL1       -0.0045
     18 C         139.9153  144.0701  161.3418 C.3     1  UNL1        0.2392
     19 O         138.8655  143.2047  161.9736 O.3     1  UNL1       -0.3385
     20 C         139.1635  141.7669  162.2801 C.3     1  UNL1        0.1693
     21 C         139.2569  141.3075  163.7049 C.ar    1  UNL1        0.0073
     22 C         138.2887  140.2891  164.2295 C.ar    1  UNL1       -0.0022
     23 C         138.3821  139.8297  165.6544 C.ar    1  UNL1       -0.0045
     24 C         139.4437  140.3887  166.5546 C.ar    1  UNL1       -0.0219
     25 C         139.5372  139.9294  167.9795 C.3     1  UNL1        0.0310
     26 C         140.4120  141.4072  166.0299 C.ar    1  UNL1       -0.0045
     27 C         140.3185  141.8666  164.6051 C.ar    1  UNL1       -0.0022
@<TRIPOS>UNITY_ATOM_ATTR
6 1
charge 1
@<TRIPOS>BOND
     1    11    12    1
     2    12    13   ar
     3    13    14   ar
     4    14    15   ar
     5    15    10    1
     6    10     9    1
     7     9     8    1
     8     8     1    1
     9     1     2   ar
    10     2     3   ar
    11     3     4   ar
    12     4     5   ar
    13     5    18    1
    14    18    19    1
    15    19    20    1
    16    20    21    1
    17    21    22   ar
    18    22    23   ar
    19    23    24   ar
    20    24    25    1
    21    24    26   ar
    22    26    27   ar
    23     5     6   ar
    24     6     7    1
    25    15    16   ar
    26    16    17   ar
    27    17    12   ar
    28     6     1   ar
    29    27    21   ar
@<TRIPOS>MOLECULE
*****
 27 29 0 0 0
SMALL
GASTEIGER

@<TRIPOS>ATOM
      1 C         141.7458  137.9567  162.9063 C.ar    1  UNL1        0.2331
      2 C         141.5318  137.6028  164.3482 C.ar    1  UNL1        0.0673
      3 C         140.1390  137.4693  164.8889 C.ar    1  UNL1        0.0116
      4 C         138.9603  137.6896  163.9877 C.ar    1  UNL1        0.0673
      5 C         139.1744  138.0435  162.5458 C.ar    1  UNL1        0.2331
      6 N         140.5671  138.1770  162.0052 N.ar    1  UNL1       -0.1663
      7 C         140.7813  138.5309  160.5633 C.3     1  UNL1        0.4077
      8 C         143.1387  138.0902  162.3656 C.3     1  UNL1        0.2392
      9 O         144.0022  139.2398  162.7933 O.3     1  UNL1       -0.3385
     10 C         143.5527  140.1432  163.9031 C.3     1  UNL1        0.1693
     11 C         141.0973  145.4675  162.6291 C.3     1  UNL1        0.0310
     12 C         141.7112  144.1364  162.9476 C.ar    1  UNL1       -0.0219
     13 C         142.3070  143.8901  164.3019 C.ar    1  UNL1       -0.0045
     14 C         142.9208  142.5590  164.6204 C.ar    1  UNL1       -0.0022
     15 C         142.9389  141.4743  163.5846 C.ar    1  UNL1        0.0073
     16 C         142.3430  141.7206  162.2302 C.ar    1  UNL1       -0.0022
     17 C         141.7292  143.0517  161.9117 C.ar    1  UNL1       -0.0045
     18 C         137.9957  138.2638  161.6446 C.3     1  UNL1        0.2392
     19 O         137.3694  139.6235  161.5478 O.3     1  UNL1       -0.3385
     20 C         138.2348  140.8381  161.3871 C.3     1  UNL1        0.1693
     21 C         138.3043  141.8598  162.4831 C.ar    1  UNL1        0.0073
     22 C         138.8626  141.4847  163.8238 C.ar    1  UNL1       -0.0022
     23 C         138.9321  142.5065  164.9198 C.ar    1  UNL1       -0.0045
     24 C         138.4432  143.9033  164.6751 C.ar    1  UNL1       -0.0219
     25 C         138.5127  144.9250  165.7711 C.3     1  UNL1        0.0310
     26 C         137.8849  144.2783  163.3343 C.ar    1  UNL1       -0.0045
     27 C         137.8154  143.2566  162.2384 C.ar    1  UNL1       -0.0022
@<TRIPOS>UNITY_ATOM_ATTR
6 1
charge 1
@<TRIPOS>BOND
     1    11    12    1
     2    12    13   ar
     3    13    14   ar
     4    14    15   ar
     5    15    10    1
     6    10     9    1
     7     9     8    1
     8     8     1    1
     9     1     2   ar
    10     2     3   ar
    11     3     4   ar
    12     4     5   ar
    13     5    18    1
    14    18    19    1
    15    19    20    1
    16    20    21    1
    17    21    22   ar
    18    22    23   ar
    19    23    24   ar
    20    24    25    1
    21    24    26   ar
    22    26    27   ar
    23     5     6   ar
    24     6     7    1
    25    15    16   ar
    26    16    17   ar
    27    17    12   ar
    28     6     1   ar
    29    27    21   ar
@<TRIPOS>MOLECULE
*****
 27 29 0 0 0
SMALL
GASTEIGER

@<TRIPOS>ATOM
      1 C         141.1939  144.1838  162.1572 C.ar    1  UNL1        0.2331
      2 C         141.4320  145.2306  163.2047 C.ar    1  UNL1        0.0673
      3 C         142.7874  145.3691  163.8323 C.ar    1  UNL1        0.0116
      4 C         143.9047  144.4607  163.4123 C.ar    1  UNL1        0.0673
      5 C         143.6666  143.4138  162.3646 C.ar    1  UNL1        0.2331
      6 N         142.3112  143.2754  161.7371 N.ar    1  UNL1       -0.1663
      7 C         142.0731  142.2286  160.6895 C.3     1  UNL1        0.4077
      8 C         139.8385  144.0454  161.5296 C.3     1  UNL1        0.2392
      9 O         138.6866  144.8554  162.0462 O.3     1  UNL1       -0.3385
     10 C         137.8026  144.3001  163.1233 C.3     1  UNL1        0.1693
     11 C         139.3645  139.2642  165.9869 C.3     1  UNL1        0.0310
     12 C         138.9740  140.5231  165.2710 C.ar    1  UNL1       -0.0219
     13 C         139.4948  141.8476  165.7447 C.ar    1  UNL1       -0.0045
     14 C         139.1044  143.1066  165.0288 C.ar    1  UNL1       -0.0022
     15 C         138.1931  143.0411  163.8392 C.ar    1  UNL1        0.0073
     16 C         137.6723  141.7166  163.3655 C.ar    1  UNL1       -0.0022
     17 C         138.0628  140.4576  164.0814 C.ar    1  UNL1       -0.0045
     18 C         144.7839  142.5054  161.9446 C.3     1  UNL1        0.2392
     19 O         145.0752  141.2617  162.7309 O.3     1  UNL1       -0.3385
     20 C         143.9591  140.3313  163.1035 C.3     1  UNL1        0.1693
     21 C         143.5761  140.1582  164.5434 C.ar    1  UNL1        0.0073
     22 C         143.1683  141.3490  165.3593 C.ar    1  UNL1       -0.0022
     23 C         142.7852  141.1759  166.7992 C.ar    1  UNL1       -0.0045
     24 C         142.8099  139.8121  167.4232 C.ar    1  UNL1       -0.0219
     25 C         142.4268  139.6390  168.8630 C.3     1  UNL1        0.0310
     26 C         143.2177  138.6213  166.6072 C.ar    1  UNL1       -0.0045
     27 C         143.6008  138.7944  165.1673 C.ar    1  UNL1       -0.0022
@<TRIPOS>UNITY_ATOM_ATTR
6 1
charge 1
@<TRIPOS>BOND
     1    11    12    1
     2    12    13   ar
     3    13    14   ar
     4    14    15   ar
     5    15    10    1
     6    10     9    1
     7     9     8    1
     8     8     1    1
     9     1     2   ar
    10     2     3   ar
    11     3     4   ar
    12     4     5   ar
    13     5    18    1
    14    18    19    1
    15    19    20    1
    16    20    21    1
    17    21    22   ar
    18    22    23   ar
    19    23    24   ar
    20    24    25    1
    21    24    26   ar
    22    26    27   ar
    23     5     6   ar
    24     6     7    1
    25    15    16   ar
    26    16    17   ar
    27    17    12   ar
    28     6     1   ar
    29    27    21   ar
@<TRIPOS>MOLECULE
*****
 27 29 0 0 0
SMALL
GASTEIGER

@<TRIPOS>ATOM
      1 C         137.8250  140.7585  163.0793 C.ar    1  UNL1        0.2331
      2 C         137.6590  140.3078  161.6583 C.ar    1  UNL1        0.0673
      3 C         138.0769  138.9243  161.2565 C.ar    1  UNL1        0.0116
      4 C         138.6610  137.9916  162.2758 C.ar    1  UNL1        0.0673
      5 C         138.8270  138.4423  163.6969 C.ar    1  UNL1        0.2331
      6 N         138.4090  139.8258  164.0986 N.ar    1  UNL1       -0.1663
      7 C         138.5750  140.2765  165.5197 C.3     1  UNL1        0.4077
      8 C         137.4070  142.1420  163.4811 C.3     1  UNL1        0.2392
      9 O         138.0533  143.3357  162.8430 O.3     1  UNL1       -0.3385
     10 C         138.7592  144.3502  163.6929 C.3     1  UNL1        0.1693
     11 C         144.4963  143.5039  165.2325 C.3     1  UNL1        0.0310
     12 C         143.0620  143.7155  164.8476 C.ar    1  UNL1       -0.0219
     13 C         141.9807  142.9201  165.5169 C.ar    1  UNL1       -0.0045
     14 C         140.5464  143.1317  165.1320 C.ar    1  UNL1       -0.0022
     15 C         140.1935  144.1387  164.0778 C.ar    1  UNL1        0.0073
     16 C         141.2748  144.9341  163.4085 C.ar    1  UNL1       -0.0022
     17 C         142.7091  144.7225  163.7934 C.ar    1  UNL1       -0.0045
     18 C         139.4110  137.5096  164.7162 C.3     1  UNL1        0.2392
     19 O         140.8894  137.2568  164.7415 O.3     1  UNL1       -0.3385
     20 C         141.8163  138.2848  165.3194 C.3     1  UNL1        0.1693
     21 C         142.5865  139.1959  164.4102 C.ar    1  UNL1        0.0073
     22 C         144.0721  139.3312  164.5670 C.ar    1  UNL1       -0.0022
     23 C         144.8423  140.2423  163.6578 C.ar    1  UNL1       -0.0045
     24 C         144.1269  141.0180  162.5918 C.ar    1  UNL1       -0.0219
     25 C         144.8971  141.9291  161.6826 C.3     1  UNL1        0.0310
     26 C         142.6412  140.8827  162.4350 C.ar    1  UNL1       -0.0045
     27 C         141.8710  139.9716  163.3442 C.ar    1  UNL1       -0.0022
@<TRIPOS>UNITY_ATOM_ATTR
6 1
charge 1
@<TRIPOS>BOND
     1    11    12    1
     2    12    13   ar
     3    13    14   ar
     4    14    15   ar
     5    15    10    1
     6    10     9    1
     7     9     8    1
     8     8     1    1
     9     1     2   ar
    10     2     3   ar
    11     3     4   ar
    12     4     5   ar
    13     5    18    1
    14    18    19    1
    15    19    20    1
    16    20    21    1
    17    21    22   ar
    18    22    23   ar
    19    23    24   ar
    20    24    25    1
    21    24    26   ar
    22    26    27   ar
    23     5     6   ar
    24     6     7    1
    25    15    16   ar
    26    16    17   ar
    27    17    12   ar
    28     6     1   ar
    29    27    21   ar
@<TRIPOS>MOLECULE
*****
 27 29 0 0 0
SMALL
GASTEIGER

@<TRIPOS>ATOM
      1 C         139.2041  142.1765  164.2389 C.ar    1  UNL1        0.2331
      2 C         138.7132  143.3933  164.9658 C.ar    1  UNL1        0.0673
      3 C         139.2837  144.7421  164.6411 C.ar    1  UNL1        0.0116
      4 C         140.3452  144.8739  163.5895 C.ar    1  UNL1        0.0673
      5 C         140.8361  143.6571  162.8626 C.ar    1  UNL1        0.2331
      6 N         140.2655  142.3084  163.1873 N.ar    1  UNL1       -0.1663
      7 C         140.7564  141.0915  162.4604 C.3     1  UNL1        0.4077
      8 C         138.6335  140.8277  164.5636 C.3     1  UNL1        0.2392
      9 O         139.3868  139.8909  165.4607 O.3     1  UNL1       -0.3385
     10 C         139.3284  140.0682  166.9490 C.3     1  UNL1        0.1693
     11 C         144.0076  142.4219  169.8758 C.3     1  UNL1        0.0310
     12 C         142.8378  141.8334  169.1441 C.ar    1  UNL1       -0.0219
     13 C         142.7178  140.3458  168.9948 C.ar    1  UNL1       -0.0045
     14 C         141.5480  139.7574  168.2631 C.ar    1  UNL1       -0.0022
     15 C         140.4982  140.6566  167.6807 C.ar    1  UNL1        0.0073
     16 C         140.6183  142.1443  167.8299 C.ar    1  UNL1       -0.0022
     17 C         141.7881  142.7327  168.5616 C.ar    1  UNL1       -0.0045
     18 C         141.8976  143.7889  161.8110 C.3     1  UNL1        0.2392
     19 O         143.1247  144.6079  162.0825 O.3     1  UNL1       -0.3385
     20 C         144.3343  143.9661  162.6949 C.3     1  UNL1        0.1693
     21 C         144.2056  142.6551  163.4123 C.ar    1  UNL1        0.0073
     22 C         144.6530  141.3882  162.7455 C.ar    1  UNL1       -0.0022
     23 C         144.5243  140.0771  163.4630 C.ar    1  UNL1       -0.0045
     24 C         143.9482  140.0331  164.8472 C.ar    1  UNL1       -0.0219
     25 C         143.8195  138.7222  165.5647 C.3     1  UNL1        0.0310
     26 C         143.5008  141.3001  165.5140 C.ar    1  UNL1       -0.0045
     27 C         143.6295  142.6111  164.7965 C.ar    1  UNL1       -0.0022
@<TRIPOS>UNITY_ATOM_ATTR
6 1
charge 1
@<TRIPOS>BOND
     1    11    12    1
     2    12    13   ar
     3    13    14   ar
     4    14    15   ar
     5    15    10    1
     6    10     9    1
     7     9     8    1
     8     8     1    1
     9     1     2   ar
    10     2     3   ar
    11     3     4   ar
    12     4     5   ar
    13     5    18    1
    14    18    19    1
    15    19    20    1
    16    20    21    1
    17    21    22   ar
    18    22    23   ar
    19    23    24   ar
    20    24    25    1
    21    24    26   ar
    22    26    27   ar
    23     5     6   ar
    24     6     7    1
    25    15    16   ar
    26    16    17   ar
    27    17    12   ar
    28     6     1   ar
    29    27    21   ar
@<TRIPOS>MOLECULE
*****
 27 29 0 0 0
SMALL
GASTEIGER

@<TRIPOS>ATOM
      1 C         144.3987  140.7140  163.1791 C.ar    1  UNL1        0.2331
      2 C         144.2550  140.4602  164.6504 C.ar    1  UNL1        0.0673
      3 C         143.4620  139.2824  165.1344 C.ar    1  UNL1        0.0116
      4 C         142.8127  138.3586  164.1470 C.ar    1  UNL1        0.0673
      5 C         142.9564  138.6125  162.6756 C.ar    1  UNL1        0.2331
      6 N         143.7494  139.7902  162.1917 N.ar    1  UNL1       -0.1663
      7 C         143.8930  140.0441  160.7203 C.3     1  UNL1        0.4077
      8 C         145.1916  141.8917  162.6951 C.3     1  UNL1        0.2392
      9 O         144.4972  143.1811  162.3703 O.3     1  UNL1       -0.3385
     10 C         144.0264  144.0785  163.4761 C.3     1  UNL1        0.1693
     11 C         138.2064  144.2560  164.9236 C.3     1  UNL1        0.0310
     12 C         139.6614  144.2116  164.5618 C.ar    1  UNL1       -0.0219
     13 C         140.5827  143.2656  165.2732 C.ar    1  UNL1       -0.0045
     14 C         142.0377  143.2212  164.9113 C.ar    1  UNL1       -0.0022
     15 C         142.5714  144.1229  163.8380 C.ar    1  UNL1        0.0073
     16 C         141.6501  145.0689  163.1266 C.ar    1  UNL1       -0.0022
     17 C         140.1951  145.1133  163.4884 C.ar    1  UNL1       -0.0045
     18 C         142.3071  137.6887  161.6882 C.3     1  UNL1        0.2392
     19 O         140.8554  137.8542  161.3487 O.3     1  UNL1       -0.3385
     20 C         140.0841  139.0167  161.8996 C.3     1  UNL1        0.1693
     21 C         139.4593  138.9251  163.2602 C.ar    1  UNL1        0.0073
     22 C         139.3276  137.5929  163.9368 C.ar    1  UNL1       -0.0022
     23 C         138.7028  137.5013  165.2974 C.ar    1  UNL1       -0.0045
     24 C         138.2097  138.7419  165.9814 C.ar    1  UNL1       -0.0219
     25 C         137.5849  138.6503  167.3419 C.3     1  UNL1        0.0310
     26 C         138.3414  140.0741  165.3047 C.ar    1  UNL1       -0.0045
     27 C         138.9662  140.1657  163.9441 C.ar    1  UNL1       -0.0022
@<TRIPOS>UNITY_ATOM_ATTR
6 1
charge 1
@<TRIPOS>BOND
     1    11    12    1
     2    12    13   ar
     3    13    14   ar
     4    14    15   ar
     5    15    10    1
     6    10     9    1
     7     9     8    1
     8     8     1    1
     9     1     2   ar
    10     2     3   ar
    11     3     4   ar
    12     4     5   ar
    13     5    18    1
    14    18    19    1
    15    19    20    1
    16    20    21    1
    17    21    22   ar
    18    22    23   ar
    19    23    24   ar
    20    24    25    1
    21    24    26   ar
    22    26    27   ar
    23     5     6   ar
    24     6     7    1
    25    15    16   ar
    26    16    17   ar
    27    17    12   ar
    28     6     1   ar
    29    27    21   ar
