@<TRIPOS>MOLECULE
*****
 48 53 0 0 0
SMALL
GASTEIGER

@<TRIPOS>ATOM
      1 N         139.0661  139.2829  157.2059 N.am    1  UNL1       -0.2964
      2 C         140.2674  139.5403  158.0663 C.2     1  UNL1        0.2461
      3 O         141.5801  139.8970  157.4341 O.2     1  UNL1       -0.2701
      4 H         138.2045  139.0488  157.6208 H       1  UNL1        0.1501
      5 C         140.1562  139.4411  159.5589 C.ar    1  UNL1        0.0548
      6 C         139.0004  138.7125  160.1781 C.ar    1  UNL1        0.0046
      7 C         138.8892  138.6133  161.6706 C.ar    1  UNL1        0.0013
      8 C         139.9337  139.2428  162.5440 C.ar    1  UNL1        0.0133
      9 C         140.0890  139.3087  164.0345 C.ar    1  UNL1       -0.0038
     10 C         141.3407  140.0781  164.3365 C.ar    1  UNL1        0.0738
     11 N         141.9590  140.4877  163.0327 N.ar    1  UNL1       -0.3242
     12 C         143.2247  141.2752  162.8659 C.3     1  UNL1        0.1305
     13 C         141.0895  139.9714  161.9249 C.ar    1  UNL1        0.0598
     14 C         141.2007  140.0706  160.4323 C.ar    1  UNL1        0.0217
     15 C         141.8796  140.3843  165.7026 C.ar    1  UNL1        0.0969
     16 C         142.2539  139.2657  166.6292 C.ar    1  UNL1        0.0229
     17 C         142.7927  139.5718  167.9951 C.ar    1  UNL1        0.0328
     18 C         142.9572  140.9965  168.4345 C.ar    1  UNL1        0.1592
     19 F         143.4961  141.3026  169.8005 F       1  UNL1       -0.2025
     20 C         142.5829  142.1151  167.5079 C.ar    1  UNL1        0.1284
     21 N         142.0441  141.8090  166.1419 N.ar    1  UNL1       -0.2400
     22 C         139.1563  138.7104  165.0455 C.3     1  UNL1        0.0238
     23 C         138.3789  139.4649  166.0830 C.3     1  UNL1        0.0044
     24 C         137.5794  138.4733  166.8751 C.3     1  UNL1        0.0003
     25 C         137.8626  137.1060  166.3273 C.3     1  UNL1        0.0003
     26 C         138.8372  137.2525  165.1965 C.3     1  UNL1        0.0044
     27 C         139.1773  139.3821  155.7133 C.3     1  UNL1        0.1261
     28 C         138.8036  140.8331  155.7819 C.3     1  UNL1        0.0270
     29 C         138.9149  140.9324  154.2894 C.3     1  UNL1        0.0043
     30 C         139.2886  139.4813  154.2207 C.3     1  UNL1        0.0270
     31 N         140.9261  137.5310  155.1984 N.am    1  UNL1       -0.2680
     32 C         139.5510  137.9310  155.6446 C.2     1  UNL1        0.2430
     33 O         138.5496  136.8800  156.0222 O.2     1  UNL1       -0.2730
     34 H         141.5833  138.2208  154.9505 H       1  UNL1        0.1563
     35 C         142.2857  133.9548  156.2532 C.ar    1  UNL1        0.2258
     36 N         141.9120  135.4059  156.3218 N.ar    1  UNL1       -0.1966
     37 C         141.2998  136.0798  155.1298 C.ar    1  UNL1        0.1373
     38 C         141.0613  135.3028  153.8691 C.ar    1  UNL1        0.0347
     39 C         141.4349  133.8516  153.8005 C.ar    1  UNL1        0.0075
     40 C         142.0471  133.1776  154.9926 C.ar    1  UNL1        0.0534
     41 C         142.4208  131.7266  154.9240 C.2     1  UNL1        0.0058
     42 C         143.4876  131.2709  153.9730 C.2     1  UNL1        0.0152
     43 C         143.8612  129.8199  153.9044 C.2     1  UNL1        0.0729
     44 O         144.5413  129.1646  155.0698 O.co2   1  UNL1       -0.5446
     45 O         143.5549  129.0240  152.6704 O.co2   1  UNL1       -0.5446
     46 O         142.8979  133.2808  157.4453 O.3     1  UNL1       -0.4602
     47 C         145.2347  132.2102  157.8233 C.3     1  UNL1        0.0512
     48 C         144.3653  133.4281  157.7186 C.3     1  UNL1        0.2072
@<TRIPOS>UNITY_ATOM_ATTR
44 1
charge -1
@<TRIPOS>BOND
     1    47    48    1
     2    48    46    1
     3    46    35    1
     4    35    36   ar
     5    36    37   ar
     6    37    31    1
     7    31    32   am
     8    32    33    2
     9    32    27    1
    10    27     1    1
    11     1     2   am
    12     2     3    2
    13     2     5    1
    14     5     6   ar
    15     6     7   ar
    16     7     8   ar
    17     8     9   ar
    18     9    22    1
    19    22    23    1
    20    23    24    1
    21    24    25    1
    22    25    26    1
    23     9    10   ar
    24    10    15    1
    25    15    16   ar
    26    16    17   ar
    27    17    18   ar
    28    18    19    1
    29    18    20   ar
    30    20    21   ar
    31    10    11   ar
    32    11    12    1
    33    11    13   ar
    34    13    14   ar
    35    27    28    1
    36    28    29    1
    37    29    30    1
    38    37    38   ar
    39    38    39   ar
    40    39    40   ar
    41    40    41    1
    42    41    42    2
    43    42    43    1
    44    43    44   ar
    45    43    45   ar
    46    40    35   ar
    47    30    27    1
    48    14     5   ar
    49    13     8   ar
    50    26    22    1
    51    21    15   ar
    52    31    34    1
    53     1     4    1
@<TRIPOS>MOLECULE
*****
 48 53 0 0 0
SMALL
GASTEIGER

@<TRIPOS>ATOM
      1 N         137.7798  140.1852  156.7331 N.am    1  UNL1       -0.2964
      2 C         137.7763  141.2825  157.7558 C.2     1  UNL1        0.2461
      3 O         137.4411  142.6866  157.3481 O.2     1  UNL1       -0.2701
      4 H         137.9998  139.2636  157.0007 H       1  UNL1        0.1501
      5 C         138.1080  140.9757  159.1862 C.ar    1  UNL1        0.0548
      6 C         137.4088  139.8533  159.8941 C.ar    1  UNL1        0.0046
      7 C         137.7405  139.5466  161.3244 C.ar    1  UNL1        0.0013
      8 C         138.7714  140.3623  162.0468 C.ar    1  UNL1        0.0133
      9 C         139.3035  140.2949  163.4477 C.ar    1  UNL1       -0.0038
     10 C         140.3316  141.3757  163.6054 C.ar    1  UNL1        0.0738
     11 N         140.4348  142.1110  162.3021 N.ar    1  UNL1       -0.3242
     12 C         141.3429  143.2694  162.0129 C.3     1  UNL1        0.1305
     13 C         139.4706  141.4847  161.3388 C.ar    1  UNL1        0.0598
     14 C         139.1389  141.7914  159.9085 C.ar    1  UNL1        0.0217
     15 C         141.1183  141.6696  164.8484 C.ar    1  UNL1        0.0969
     16 C         140.4399  142.2805  166.0385 C.ar    1  UNL1        0.0229
     17 C         141.2265  142.5744  167.2813 C.ar    1  UNL1        0.0328
     18 C         142.6917  142.2574  167.3341 C.ar    1  UNL1        0.1592
     19 F         143.4784  142.5513  168.5770 F       1  UNL1       -0.2025
     20 C         143.3701  141.6465  166.1439 C.ar    1  UNL1        0.1284
     21 N         142.5835  141.3526  164.9011 N.ar    1  UNL1       -0.2400
     22 C         138.8817  139.3182  164.5050 C.3     1  UNL1        0.0238
     23 C         139.1450  137.8415  164.4968 C.3     1  UNL1        0.0044
     24 C         138.5485  137.2573  165.7429 C.3     1  UNL1        0.0003
     25 C         137.9164  138.3729  166.5213 C.3     1  UNL1        0.0003
     26 C         138.1223  139.6466  165.7562 C.3     1  UNL1        0.0044
     27 C         137.4481  140.4919  155.3027 C.3     1  UNL1        0.1261
     28 C         138.8582  140.9491  155.0738 C.3     1  UNL1        0.0270
     29 C         138.5266  141.2559  153.6435 C.3     1  UNL1        0.0043
     30 C         137.1165  140.7987  153.8724 C.3     1  UNL1        0.0270
     31 N         135.0677  140.9258  156.2489 N.am    1  UNL1       -0.2680
     32 C         136.0380  140.0347  155.5316 C.2     1  UNL1        0.2430
     33 O         135.5981  138.6863  155.0432 O.2     1  UNL1       -0.2730
     34 H         135.3564  141.8107  156.5694 H       1  UNL1        0.1563
     35 C         131.1096  140.7254  156.0390 C.ar    1  UNL1        0.2258
     36 N         132.5198  141.1826  155.8102 N.ar    1  UNL1       -0.1966
     37 C         133.6575  140.4685  156.4778 C.ar    1  UNL1        0.1373
     38 C         133.3850  139.2971  157.3742 C.ar    1  UNL1        0.0347
     39 C         131.9748  138.8398  157.6030 C.ar    1  UNL1        0.0075
     40 C         130.8371  139.5540  156.9355 C.ar    1  UNL1        0.0534
     41 C         129.4270  139.0967  157.1643 C.2     1  UNL1        0.0058
     42 C         129.1240  137.6329  157.2887 C.2     1  UNL1        0.0152
     43 C         127.7139  137.1757  157.5176 C.2     1  UNL1        0.0729
     44 O         126.7988  137.9769  158.3955 O.co2   1  UNL1       -0.5446
     45 O         127.2188  135.9173  156.8686 O.co2   1  UNL1       -0.5446
     46 O         129.9720  141.4396  155.3714 O.3     1  UNL1       -0.4602
     47 C         129.1134  143.8916  155.3909 C.3     1  UNL1        0.0512
     48 C         130.1258  142.8731  154.9576 C.3     1  UNL1        0.2072
@<TRIPOS>UNITY_ATOM_ATTR
44 1
charge -1
@<TRIPOS>BOND
     1    47    48    1
     2    48    46    1
     3    46    35    1
     4    35    36   ar
     5    36    37   ar
     6    37    31    1
     7    31    32   am
     8    32    33    2
     9    32    27    1
    10    27     1    1
    11     1     2   am
    12     2     3    2
    13     2     5    1
    14     5     6   ar
    15     6     7   ar
    16     7     8   ar
    17     8     9   ar
    18     9    22    1
    19    22    23    1
    20    23    24    1
    21    24    25    1
    22    25    26    1
    23     9    10   ar
    24    10    15    1
    25    15    16   ar
    26    16    17   ar
    27    17    18   ar
    28    18    19    1
    29    18    20   ar
    30    20    21   ar
    31    10    11   ar
    32    11    12    1
    33    11    13   ar
    34    13    14   ar
    35    27    28    1
    36    28    29    1
    37    29    30    1
    38    37    38   ar
    39    38    39   ar
    40    39    40   ar
    41    40    41    1
    42    41    42    2
    43    42    43    1
    44    43    44   ar
    45    43    45   ar
    46    40    35   ar
    47    30    27    1
    48    14     5   ar
    49    13     8   ar
    50    26    22    1
    51    21    15   ar
    52    31    34    1
    53     1     4    1
@<TRIPOS>MOLECULE
*****
 48 53 0 0 0
SMALL
GASTEIGER

@<TRIPOS>ATOM
      1 N         143.6288  138.8401  157.7660 N.am    1  UNL1       -0.2964
      2 C         142.3292  138.3583  157.1925 C.2     1  UNL1        0.2461
      3 O         141.1483  139.2812  157.1316 O.2     1  UNL1       -0.2701
      4 H         144.4038  138.2344  157.8060 H       1  UNL1        0.1501
      5 C         142.2105  136.9536  156.6798 C.ar    1  UNL1        0.0548
      6 C         141.1935  136.6224  155.6282 C.ar    1  UNL1        0.0046
      7 C         141.0749  135.2177  155.1156 C.ar    1  UNL1        0.0013
      8 C         141.9733  134.1443  155.6546 C.ar    1  UNL1        0.0133
      9 C         142.0872  132.6811  155.3441 C.ar    1  UNL1       -0.0038
     10 C         143.1746  132.1081  156.2038 C.ar    1  UNL1        0.0738
     11 N         143.7328  133.2171  157.0457 N.ar    1  UNL1       -0.3242
     12 C         144.8392  133.0900  158.0505 C.3     1  UNL1        0.1305
     13 C         142.9903  134.4755  156.7062 C.ar    1  UNL1        0.0598
     14 C         143.1090  135.8801  157.2188 C.ar    1  UNL1        0.0217
     15 C         143.6248  130.6773  156.2191 C.ar    1  UNL1        0.0969
     16 C         144.4893  130.1513  155.1118 C.ar    1  UNL1        0.0229
     17 C         144.9396  128.7205  155.1271 C.ar    1  UNL1        0.0328
     18 C         144.5253  127.8159  156.2495 C.ar    1  UNL1        0.1592
     19 F         144.9756  126.3851  156.2647 F       1  UNL1       -0.2025
     20 C         143.6608  128.3419  157.3567 C.ar    1  UNL1        0.1284
     21 N         143.2106  129.7726  157.3415 N.ar    1  UNL1       -0.2400
     22 C         141.2590  131.9240  154.3487 C.3     1  UNL1        0.0238
     23 C         141.2360  132.1516  152.8662 C.3     1  UNL1        0.0044
     24 C         140.2712  131.1747  152.2623 C.3     1  UNL1        0.0003
     25 C         139.6980  130.3433  153.3714 C.3     1  UNL1        0.0003
     26 C         140.3085  130.8064  154.6609 C.3     1  UNL1        0.0044
     27 C         143.7474  140.2449  158.2787 C.3     1  UNL1        0.1261
     28 C         144.2883  140.6839  156.9503 C.3     1  UNL1        0.0270
     29 C         144.4069  142.0886  157.4628 C.3     1  UNL1        0.0043
     30 C         143.8661  141.6495  158.7912 C.3     1  UNL1        0.0270
     31 N         141.9201  140.3816  160.1205 N.am    1  UNL1       -0.2680
     32 C         143.2066  139.8058  159.6070 C.2     1  UNL1        0.2430
     33 O         143.9522  138.7909  160.4221 O.2     1  UNL1       -0.2730
     34 H         141.4308  141.0476  159.5856 H       1  UNL1        0.1563
     35 C         141.3789  140.1021  164.0421 C.ar    1  UNL1        0.2258
     36 N         141.9197  140.5411  162.7137 N.ar    1  UNL1       -0.1966
     37 C         141.3793  139.9424  161.4489 C.ar    1  UNL1        0.1373
     38 C         140.2981  138.9047  161.5126 C.ar    1  UNL1        0.0347
     39 C         139.7573  138.4656  162.8411 C.ar    1  UNL1        0.0075
     40 C         140.2977  139.0643  164.1058 C.ar    1  UNL1        0.0534
     41 C         139.7569  138.6252  165.4342 C.2     1  UNL1        0.0058
     42 C         138.4636  139.1909  165.9416 C.2     1  UNL1        0.0152
     43 C         137.9228  138.7518  167.2700 C.2     1  UNL1        0.0729
     44 O         138.4378  139.3763  168.5329 O.co2   1  UNL1       -0.5446
     45 O         136.8671  137.6883  167.3356 O.co2   1  UNL1       -0.5446
     46 O         141.9193  140.7007  165.3068 O.3     1  UNL1       -0.4602
     47 C         143.4016  142.4707  166.4985 C.3     1  UNL1        0.0512
     48 C         142.7632  141.9395  165.2494 C.3     1  UNL1        0.2072
@<TRIPOS>UNITY_ATOM_ATTR
44 1
charge -1
@<TRIPOS>BOND
     1    47    48    1
     2    48    46    1
     3    46    35    1
     4    35    36   ar
     5    36    37   ar
     6    37    31    1
     7    31    32   am
     8    32    33    2
     9    32    27    1
    10    27     1    1
    11     1     2   am
    12     2     3    2
    13     2     5    1
    14     5     6   ar
    15     6     7   ar
    16     7     8   ar
    17     8     9   ar
    18     9    22    1
    19    22    23    1
    20    23    24    1
    21    24    25    1
    22    25    26    1
    23     9    10   ar
    24    10    15    1
    25    15    16   ar
    26    16    17   ar
    27    17    18   ar
    28    18    19    1
    29    18    20   ar
    30    20    21   ar
    31    10    11   ar
    32    11    12    1
    33    11    13   ar
    34    13    14   ar
    35    27    28    1
    36    28    29    1
    37    29    30    1
    38    37    38   ar
    39    38    39   ar
    40    39    40   ar
    41    40    41    1
    42    41    42    2
    43    42    43    1
    44    43    44   ar
    45    43    45   ar
    46    40    35   ar
    47    30    27    1
    48    14     5   ar
    49    13     8   ar
    50    26    22    1
    51    21    15   ar
    52    31    34    1
    53     1     4    1
@<TRIPOS>MOLECULE
*****
 48 53 0 0 0
SMALL
GASTEIGER

@<TRIPOS>ATOM
      1 N         143.6979  138.9335  157.8712 N.am    1  UNL1       -0.2964
      2 C         142.3924  138.4793  157.2888 C.2     1  UNL1        0.2461
      3 O         141.2304  139.4256  157.2241 O.2     1  UNL1       -0.2701
      4 H         144.4606  138.3124  157.9137 H       1  UNL1        0.1501
      5 C         142.2488  137.0788  156.7712 C.ar    1  UNL1        0.0548
      6 C         141.2245  136.7690  155.7201 C.ar    1  UNL1        0.0046
      7 C         141.0809  135.3685  155.2025 C.ar    1  UNL1        0.0013
      8 C         141.9617  134.2778  155.7359 C.ar    1  UNL1        0.0133
      9 C         142.0500  132.8141  155.4197 C.ar    1  UNL1       -0.0038
     10 C         143.1289  132.2193  156.2754 C.ar    1  UNL1        0.0738
     11 N         143.7074  133.3154  157.1204 N.ar    1  UNL1       -0.3242
     12 C         144.8132  133.1656  158.1228 C.3     1  UNL1        0.1305
     13 C         142.9861  134.5876  156.7870 C.ar    1  UNL1        0.0598
     14 C         143.1296  135.9881  157.3046 C.ar    1  UNL1        0.0217
     15 C         143.5546  130.7810  156.2845 C.ar    1  UNL1        0.0969
     16 C         144.5171  130.2771  155.2502 C.ar    1  UNL1        0.0229
     17 C         144.9428  128.8389  155.2593 C.ar    1  UNL1        0.0328
     18 C         144.4059  127.9044  156.3027 C.ar    1  UNL1        0.1592
     19 F         144.8316  126.4661  156.3118 F       1  UNL1       -0.2025
     20 C         143.4434  128.4083  157.3369 C.ar    1  UNL1        0.1284
     21 N         143.0177  129.8465  157.3279 N.ar    1  UNL1       -0.2400
     22 C         141.2073  132.0750  154.4229 C.3     1  UNL1        0.0238
     23 C         141.1219  132.3647  152.9537 C.3     1  UNL1        0.0044
     24 C         140.1638  131.3853  152.3431 C.3     1  UNL1        0.0003
     25 C         139.6571  130.4903  153.4349 C.3     1  UNL1        0.0003
     26 C         140.3020  130.9166  154.7204 C.3     1  UNL1        0.0044
     27 C         143.8415  140.3341  158.3889 C.3     1  UNL1        0.1261
     28 C         143.9635  140.8413  156.9826 C.3     1  UNL1        0.0270
     29 C         144.1071  142.2418  157.5002 C.3     1  UNL1        0.0043
     30 C         143.9851  141.7345  158.9065 C.3     1  UNL1        0.0270
     31 N         143.4903  140.7894  160.9225 N.am    1  UNL1       -0.2680
     32 C         143.7196  139.8268  159.7952 C.2     1  UNL1        0.2430
     33 O         143.8269  138.3569  160.0743 O.2     1  UNL1       -0.2730
     34 H         143.4199  141.7542  160.7394 H       1  UNL1        0.1563
     35 C         141.8925  139.4921  164.3157 C.ar    1  UNL1        0.2258
     36 N         142.0145  139.9994  162.9094 N.ar    1  UNL1       -0.1966
     37 C         143.3684  140.2821  162.3289 C.ar    1  UNL1        0.1373
     38 C         144.6003  140.0575  163.1547 C.ar    1  UNL1        0.0347
     39 C         144.4783  139.5502  164.5610 C.ar    1  UNL1        0.0075
     40 C         143.1244  139.2675  165.1416 C.ar    1  UNL1        0.0534
     41 C         143.0024  138.7602  166.5479 C.2     1  UNL1        0.0058
     42 C         142.5457  139.6809  167.6404 C.2     1  UNL1        0.0152
     43 C         142.4237  139.1736  169.0467 C.2     1  UNL1        0.0729
     44 O         143.2815  138.0336  169.5098 O.co2   1  UNL1       -0.5446
     45 O         141.4438  139.8063  169.9899 O.co2   1  UNL1       -0.5446
     46 O         140.5386  139.2093  164.8962 O.3     1  UNL1       -0.4602
     47 C         138.6310  137.5279  165.4290 C.3     1  UNL1        0.0512
     48 C         139.9274  137.8478  164.7457 C.3     1  UNL1        0.2072
@<TRIPOS>UNITY_ATOM_ATTR
44 1
charge -1
@<TRIPOS>BOND
     1    47    48    1
     2    48    46    1
     3    46    35    1
     4    35    36   ar
     5    36    37   ar
     6    37    31    1
     7    31    32   am
     8    32    33    2
     9    32    27    1
    10    27     1    1
    11     1     2   am
    12     2     3    2
    13     2     5    1
    14     5     6   ar
    15     6     7   ar
    16     7     8   ar
    17     8     9   ar
    18     9    22    1
    19    22    23    1
    20    23    24    1
    21    24    25    1
    22    25    26    1
    23     9    10   ar
    24    10    15    1
    25    15    16   ar
    26    16    17   ar
    27    17    18   ar
    28    18    19    1
    29    18    20   ar
    30    20    21   ar
    31    10    11   ar
    32    11    12    1
    33    11    13   ar
    34    13    14   ar
    35    27    28    1
    36    28    29    1
    37    29    30    1
    38    37    38   ar
    39    38    39   ar
    40    39    40   ar
    41    40    41    1
    42    41    42    2
    43    42    43    1
    44    43    44   ar
    45    43    45   ar
    46    40    35   ar
    47    30    27    1
    48    14     5   ar
    49    13     8   ar
    50    26    22    1
    51    21    15   ar
    52    31    34    1
    53     1     4    1
@<TRIPOS>MOLECULE
*****
 48 53 0 0 0
SMALL
GASTEIGER

@<TRIPOS>ATOM
      1 N         142.2622  138.7635  157.2768 N.am    1  UNL1       -0.2964
      2 C         143.1147  139.2762  158.3994 C.2     1  UNL1        0.2461
      3 O         144.4926  139.7976  158.1171 O.2     1  UNL1       -0.2701
      4 H         141.3579  138.4213  157.4622 H       1  UNL1        0.1501
      5 C         142.5894  139.2676  159.8045 C.ar    1  UNL1        0.0548
      6 C         141.2514  138.6580  160.1012 C.ar    1  UNL1        0.0046
      7 C         140.7262  138.6494  161.5062 C.ar    1  UNL1        0.0013
      8 C         141.5389  139.2504  162.6144 C.ar    1  UNL1        0.0133
      9 C         141.2833  139.3872  164.0862 C.ar    1  UNL1       -0.0038
     10 C         142.4633  140.0814  164.6990 C.ar    1  UNL1        0.0738
     11 N         143.4483  140.3736  163.6060 N.ar    1  UNL1       -0.3242
     12 C         144.7721  141.0590  163.7722 C.3     1  UNL1        0.1305
     13 C         142.8770  139.8600  162.3177 C.ar    1  UNL1        0.0598
     14 C         143.4022  139.8686  160.9127 C.ar    1  UNL1        0.0217
     15 C         142.6293  140.4234  166.1501 C.ar    1  UNL1        0.0969
     16 C         142.6051  139.3371  167.1842 C.ar    1  UNL1        0.0229
     17 C         142.7711  139.6791  168.6352 C.ar    1  UNL1        0.0328
     18 C         142.9613  141.1074  169.0521 C.ar    1  UNL1        0.1592
     19 F         143.1274  141.4494  170.5032 F       1  UNL1       -0.2025
     20 C         142.9856  142.1937  168.0180 C.ar    1  UNL1        0.1284
     21 N         142.8196  141.8517  166.5670 N.ar    1  UNL1       -0.2400
     22 C         140.0620  138.9131  164.8168 C.3     1  UNL1        0.0238
     23 C         139.1074  139.7740  165.5897 C.3     1  UNL1        0.0044
     24 C         138.0364  138.8879  166.1533 C.3     1  UNL1        0.0003
     25 C         138.3290  137.4794  165.7287 C.3     1  UNL1        0.0003
     26 C         139.5810  137.4950  164.9027 C.3     1  UNL1        0.0044
     27 C         142.7875  138.7722  155.8718 C.3     1  UNL1        0.1261
     28 C         142.3718  140.2059  155.7252 C.3     1  UNL1        0.0270
     29 C         142.8971  140.2146  154.3203 C.3     1  UNL1        0.0043
     30 C         143.3128  138.7808  154.4668 C.3     1  UNL1        0.0270
     31 N         142.2027  136.3078  156.4503 N.am    1  UNL1       -0.2680
     32 C         143.2033  137.3384  156.0184 C.2     1  UNL1        0.2430
     33 O         144.6197  136.9353  155.7330 O.2     1  UNL1       -0.2730
     34 H         141.2731  136.5723  156.6376 H       1  UNL1        0.1563
     35 C         142.3618  132.3771  155.9266 C.ar    1  UNL1        0.2258
     36 N         141.9460  133.8108  155.7800 N.ar    1  UNL1       -0.1966
     37 C         142.6186  134.8740  156.5969 C.ar    1  UNL1        0.1373
     38 C         143.7069  134.5035  157.5603 C.ar    1  UNL1        0.0347
     39 C         144.1227  133.0697  157.7069 C.ar    1  UNL1        0.0075
     40 C         143.4502  132.0065  156.8900 C.ar    1  UNL1        0.0534
     41 C         143.8660  130.5727  157.0365 C.2     1  UNL1        0.0058
     42 C         144.5241  130.1083  158.3019 C.2     1  UNL1        0.0152
     43 C         144.9399  128.6745  158.4484 C.2     1  UNL1        0.0729
     44 O         145.1644  128.0944  159.8134 O.co2   1  UNL1       -0.5446
     45 O         145.1313  127.8208  157.2300 O.co2   1  UNL1       -0.5446
     46 O         141.6892  131.3139  155.1097 O.3     1  UNL1       -0.4602
     47 C         143.3803  130.9445  153.1723 C.3     1  UNL1        0.0512
     48 C         141.9790  131.1998  153.6424 C.3     1  UNL1        0.2072
@<TRIPOS>UNITY_ATOM_ATTR
44 1
charge -1
@<TRIPOS>BOND
     1    47    48    1
     2    48    46    1
     3    46    35    1
     4    35    36   ar
     5    36    37   ar
     6    37    31    1
     7    31    32   am
     8    32    33    2
     9    32    27    1
    10    27     1    1
    11     1     2   am
    12     2     3    2
    13     2     5    1
    14     5     6   ar
    15     6     7   ar
    16     7     8   ar
    17     8     9   ar
    18     9    22    1
    19    22    23    1
    20    23    24    1
    21    24    25    1
    22    25    26    1
    23     9    10   ar
    24    10    15    1
    25    15    16   ar
    26    16    17   ar
    27    17    18   ar
    28    18    19    1
    29    18    20   ar
    30    20    21   ar
    31    10    11   ar
    32    11    12    1
    33    11    13   ar
    34    13    14   ar
    35    27    28    1
    36    28    29    1
    37    29    30    1
    38    37    38   ar
    39    38    39   ar
    40    39    40   ar
    41    40    41    1
    42    41    42    2
    43    42    43    1
    44    43    44   ar
    45    43    45   ar
    46    40    35   ar
    47    30    27    1
    48    14     5   ar
    49    13     8   ar
    50    26    22    1
    51    21    15   ar
    52    31    34    1
    53     1     4    1
@<TRIPOS>MOLECULE
*****
 48 53 0 0 0
SMALL
GASTEIGER

@<TRIPOS>ATOM
      1 N         141.4644  139.5327  157.8883 N.am    1  UNL1       -0.2964
      2 C         142.4301  139.3584  159.0228 C.2     1  UNL1        0.2461
      3 O         143.8987  139.2316  158.7449 O.2     1  UNL1       -0.2701
      4 H         140.5006  139.6159  158.0707 H       1  UNL1        0.1501
      5 C         141.9272  139.3107  160.4352 C.ar    1  UNL1        0.0548
      6 C         140.6697  138.5599  160.7587 C.ar    1  UNL1        0.0046
      7 C         140.1669  138.5123  162.1711 C.ar    1  UNL1        0.0013
      8 C         140.9216  139.2155  163.2600 C.ar    1  UNL1        0.0133
      9 C         140.6713  139.3435  164.7335 C.ar    1  UNL1       -0.0038
     10 C         141.7742  140.1734  165.3206 C.ar    1  UNL1        0.0738
     11 N         142.7061  140.5584  164.2100 N.ar    1  UNL1       -0.3242
     12 C         143.9471  141.3895  164.3486 C.3     1  UNL1        0.1305
     13 C         142.1792  139.9664  162.9365 C.ar    1  UNL1        0.0598
     14 C         142.6820  140.0140  161.5241 C.ar    1  UNL1        0.0217
     15 C         141.9197  140.5520  166.7648 C.ar    1  UNL1        0.0969
     16 C         142.4175  139.5440  167.7578 C.ar    1  UNL1        0.0229
     17 C         142.5630  139.9225  169.2020 C.ar    1  UNL1        0.0328
     18 C         142.2107  141.3090  169.6530 C.ar    1  UNL1        0.1592
     19 F         142.3562  141.6876  171.0972 F       1  UNL1       -0.2025
     20 C         141.7130  142.3170  168.6600 C.ar    1  UNL1        0.1284
     21 N         141.5674  141.9385  167.2158 N.ar    1  UNL1       -0.2400
     22 C         139.5202  138.7464  165.4873 C.3     1  UNL1        0.0238
     23 C         138.6487  139.4612  166.4770 C.3     1  UNL1        0.0044
     24 C         137.6284  138.4862  166.9853 C.3     1  UNL1        0.0003
     25 C         137.8692  137.1688  166.3097 C.3     1  UNL1        0.0003
     26 C         139.0385  137.3296  165.3839 C.3     1  UNL1        0.0044
     27 C         141.9673  139.5804  156.4759 C.3     1  UNL1        0.1261
     28 C         142.2659  141.0421  156.6315 C.3     1  UNL1        0.0270
     29 C         142.7687  141.0897  155.2192 C.3     1  UNL1        0.0043
     30 C         142.4701  139.6280  155.0635 C.3     1  UNL1        0.0270
     31 N         142.6540  137.2210  155.6322 N.am    1  UNL1       -0.2680
     32 C         141.6687  138.1187  156.3202 C.2     1  UNL1        0.2430
     33 O         140.3848  137.5546  156.8527 O.2     1  UNL1       -0.2730
     34 H         143.4967  137.5912  155.2827 H       1  UNL1        0.1563
     35 C         142.5111  133.3237  156.3675 C.ar    1  UNL1        0.2258
     36 N         142.8097  134.7854  156.5231 N.ar    1  UNL1       -0.1966
     37 C         142.3554  135.7593  155.4765 C.ar    1  UNL1        0.1373
     38 C         141.6025  135.2714  154.2744 C.ar    1  UNL1        0.0347
     39 C         141.3039  133.8096  154.1188 C.ar    1  UNL1        0.0075
     40 C         141.7582  132.8358  155.1653 C.ar    1  UNL1        0.0534
     41 C         141.4596  131.3741  155.0098 C.2     1  UNL1        0.0058
     42 C         140.1206  130.9325  154.4979 C.2     1  UNL1        0.0152
     43 C         139.8220  129.4708  154.3423 C.2     1  UNL1        0.0729
     44 O         139.4060  128.6593  155.5334 O.co2   1  UNL1       -0.5446
     45 O         139.9393  128.8205  152.9957 O.co2   1  UNL1       -0.5446
     46 O         142.9654  132.3499  157.4141 O.3     1  UNL1       -0.4602
     47 C         145.0812  131.2908  156.3411 C.3     1  UNL1        0.0512
     48 C         144.4123  131.9646  157.5024 C.3     1  UNL1        0.2072
@<TRIPOS>UNITY_ATOM_ATTR
44 1
charge -1
@<TRIPOS>BOND
     1    47    48    1
     2    48    46    1
     3    46    35    1
     4    35    36   ar
     5    36    37   ar
     6    37    31    1
     7    31    32   am
     8    32    33    2
     9    32    27    1
    10    27     1    1
    11     1     2   am
    12     2     3    2
    13     2     5    1
    14     5     6   ar
    15     6     7   ar
    16     7     8   ar
    17     8     9   ar
    18     9    22    1
    19    22    23    1
    20    23    24    1
    21    24    25    1
    22    25    26    1
    23     9    10   ar
    24    10    15    1
    25    15    16   ar
    26    16    17   ar
    27    17    18   ar
    28    18    19    1
    29    18    20   ar
    30    20    21   ar
    31    10    11   ar
    32    11    12    1
    33    11    13   ar
    34    13    14   ar
    35    27    28    1
    36    28    29    1
    37    29    30    1
    38    37    38   ar
    39    38    39   ar
    40    39    40   ar
    41    40    41    1
    42    41    42    2
    43    42    43    1
    44    43    44   ar
    45    43    45   ar
    46    40    35   ar
    47    30    27    1
    48    14     5   ar
    49    13     8   ar
    50    26    22    1
    51    21    15   ar
    52    31    34    1
    53     1     4    1
@<TRIPOS>MOLECULE
*****
 48 53 0 0 0
SMALL
GASTEIGER

@<TRIPOS>ATOM
      1 N         139.7142  140.6259  157.4943 N.am    1  UNL1       -0.2964
      2 C         139.4806  139.3229  158.1995 C.2     1  UNL1        0.2461
      3 O         139.2395  138.0732  157.4056 O.2     1  UNL1       -0.2701
      4 H         139.8724  141.4462  158.0153 H       1  UNL1        0.1501
      5 C         139.4879  139.2694  159.6985 C.ar    1  UNL1        0.0548
      6 C         138.3886  138.5568  160.4290 C.ar    1  UNL1        0.0046
      7 C         138.3960  138.5034  161.9280 C.ar    1  UNL1        0.0013
      8 C         139.5028  139.1625  162.6965 C.ar    1  UNL1        0.0133
      9 C         139.7748  139.2749  164.1674 C.ar    1  UNL1       -0.0038
     10 C         141.0423  140.0569  164.3459 C.ar    1  UNL1        0.0738
     11 N         141.5536  140.4278  162.9854 N.ar    1  UNL1       -0.3242
     12 C         142.7980  141.2136  162.6952 C.3     1  UNL1        0.1305
     13 C         140.6021  139.8751  161.9661 C.ar    1  UNL1        0.0598
     14 C         140.5947  139.9285  160.4671 C.ar    1  UNL1        0.0217
     15 C         141.6857  140.4066  165.6551 C.ar    1  UNL1        0.0969
     16 C         142.1324  139.3182  166.5857 C.ar    1  UNL1        0.0229
     17 C         142.7757  139.6678  167.8948 C.ar    1  UNL1        0.0328
     18 C         142.9722  141.1059  168.2734 C.ar    1  UNL1        0.1592
     19 F         143.6156  141.4556  169.5826 F       1  UNL1       -0.2025
     20 C         142.5255  142.1943  167.3429 C.ar    1  UNL1        0.1284
     21 N         141.8822  141.8446  166.0338 N.ar    1  UNL1       -0.2400
     22 C         138.9281  138.7052  165.2667 C.3     1  UNL1        0.0238
     23 C         138.2702  139.4844  166.3667 C.3     1  UNL1        0.0044
     24 C         137.5260  138.5172  167.2389 C.3     1  UNL1        0.0003
     25 C         137.7239  137.1402  166.6779 C.3     1  UNL1        0.0003
     26 C         138.5905  137.2564  165.4590 C.3     1  UNL1        0.0044
     27 C         139.7068  140.6794  155.9952 C.3     1  UNL1        0.1261
     28 C         141.1693  140.3466  155.9762 C.3     1  UNL1        0.0270
     29 C         141.1619  140.4000  154.4772 C.3     1  UNL1        0.0043
     30 C         139.6995  140.7329  154.4962 C.3     1  UNL1        0.0270
     31 N         137.2362  139.9872  155.5867 N.am    1  UNL1       -0.2680
     32 C         138.2444  141.0123  156.0143 C.2     1  UNL1        0.2430
     33 O         137.7900  142.3703  156.4609 O.2     1  UNL1       -0.2730
     34 H         137.5344  139.0959  155.2935 H       1  UNL1        0.1563
     35 C         133.4666  140.2544  156.7986 C.ar    1  UNL1        0.2258
     36 N         134.9290  139.9215  156.7795 N.ar    1  UNL1       -0.1966
     37 C         135.7737  140.3201  155.6057 C.ar    1  UNL1        0.1373
     38 C         135.1559  141.0515  154.4511 C.ar    1  UNL1        0.0347
     39 C         133.6934  141.3845  154.4701 C.ar    1  UNL1        0.0075
     40 C         132.8487  140.9859  155.6439 C.ar    1  UNL1        0.0534
     41 C         131.3863  141.3188  155.6629 C.2     1  UNL1        0.0058
     42 C         130.7993  142.1813  154.5852 C.2     1  UNL1        0.0152
     43 C         129.3369  142.5141  154.6043 C.2     1  UNL1        0.0729
     44 O         128.3652  141.6691  153.8350 O.co2   1  UNL1       -0.5446
     45 O         128.8460  143.6920  155.3927 O.co2   1  UNL1       -0.5446
     46 O         132.6219  139.8558  157.9723 O.3     1  UNL1       -0.4602
     47 C         130.3932  138.5305  158.1340 C.3     1  UNL1        0.0512
     48 C         131.8824  138.5510  157.9555 C.3     1  UNL1        0.2072
@<TRIPOS>UNITY_ATOM_ATTR
44 1
charge -1
@<TRIPOS>BOND
     1    47    48    1
     2    48    46    1
     3    46    35    1
     4    35    36   ar
     5    36    37   ar
     6    37    31    1
     7    31    32   am
     8    32    33    2
     9    32    27    1
    10    27     1    1
    11     1     2   am
    12     2     3    2
    13     2     5    1
    14     5     6   ar
    15     6     7   ar
    16     7     8   ar
    17     8     9   ar
    18     9    22    1
    19    22    23    1
    20    23    24    1
    21    24    25    1
    22    25    26    1
    23     9    10   ar
    24    10    15    1
    25    15    16   ar
    26    16    17   ar
    27    17    18   ar
    28    18    19    1
    29    18    20   ar
    30    20    21   ar
    31    10    11   ar
    32    11    12    1
    33    11    13   ar
    34    13    14   ar
    35    27    28    1
    36    28    29    1
    37    29    30    1
    38    37    38   ar
    39    38    39   ar
    40    39    40   ar
    41    40    41    1
    42    41    42    2
    43    42    43    1
    44    43    44   ar
    45    43    45   ar
    46    40    35   ar
    47    30    27    1
    48    14     5   ar
    49    13     8   ar
    50    26    22    1
    51    21    15   ar
    52    31    34    1
    53     1     4    1
@<TRIPOS>MOLECULE
*****
 48 53 0 0 0
SMALL
GASTEIGER

@<TRIPOS>ATOM
      1 N         144.0400  140.1640  157.6654 N.am    1  UNL1       -0.2964
      2 C         143.0559  141.2816  157.8454 C.2     1  UNL1        0.2461
      3 O         142.6832  142.1478  156.6789 O.2     1  UNL1       -0.2701
      4 H         144.2846  139.5954  158.4310 H       1  UNL1        0.1501
      5 C         142.4445  141.5330  159.1919 C.ar    1  UNL1        0.0548
      6 C         141.4470  142.6394  159.3679 C.ar    1  UNL1        0.0046
      7 C         140.8357  142.8908  160.7144 C.ar    1  UNL1        0.0013
      8 C         141.2217  142.0358  161.8848 C.ar    1  UNL1        0.0133
      9 C         140.7897  142.0463  163.3213 C.ar    1  UNL1       -0.0038
     10 C         141.5201  140.9463  164.0330 C.ar    1  UNL1        0.0738
     11 N         142.4036  140.2561  163.0364 N.ar    1  UNL1       -0.3242
     12 C         143.3120  139.0961  163.3180 C.3     1  UNL1        0.1305
     13 C         142.2191  140.9294  161.7088 C.ar    1  UNL1        0.0598
     14 C         142.8305  140.6780  160.3623 C.ar    1  UNL1        0.0217
     15 C         141.3901  140.5978  165.4862 C.ar    1  UNL1        0.0969
     16 C         140.0575  140.1943  166.0443 C.ar    1  UNL1        0.0229
     17 C         139.9273  139.8458  167.4974 C.ar    1  UNL1        0.0328
     18 C         141.1298  139.9008  168.3924 C.ar    1  UNL1        0.1592
     19 F         140.9997  139.5522  169.8456 F       1  UNL1       -0.2025
     20 C         142.4623  140.3042  167.8343 C.ar    1  UNL1        0.1284
     21 N         142.5925  140.6528  166.3812 N.ar    1  UNL1       -0.2400
     22 C         139.8009  142.9908  163.9377 C.3     1  UNL1        0.0238
     23 C         140.1316  144.2395  164.7002 C.3     1  UNL1        0.0044
     24 C         138.8429  144.8729  165.1336 C.3     1  UNL1        0.0003
     25 C         137.7157  144.0158  164.6390 C.3     1  UNL1        0.0003
     26 C         138.3077  142.8526  163.8998 C.3     1  UNL1        0.0044
     27 C         144.6514  139.9125  156.3189 C.3     1  UNL1        0.1261
     28 C         145.4872  141.1492  156.4676 C.3     1  UNL1        0.0270
     29 C         146.0986  140.8978  155.1211 C.3     1  UNL1        0.0043
     30 C         145.2629  139.6612  154.9725 C.3     1  UNL1        0.0270
     31 N         144.4433  137.3992  155.6947 N.am    1  UNL1       -0.2680
     32 C         143.8157  138.6759  156.1703 C.2     1  UNL1        0.2430
     33 O         142.3523  138.7158  156.4973 O.2     1  UNL1       -0.2730
     34 H         145.4038  137.3729  155.4801 H       1  UNL1        0.1563
     35 C         142.8656  133.8301  156.4176 C.ar    1  UNL1        0.2258
     36 N         143.7013  135.0668  156.5662 N.ar    1  UNL1       -0.1966
     37 C         143.6075  136.1625  155.5460 C.ar    1  UNL1        0.1373
     38 C         142.6779  136.0215  154.3773 C.ar    1  UNL1        0.0347
     39 C         141.8421  134.7848  154.2287 C.ar    1  UNL1        0.0075
     40 C         141.9359  133.6891  155.2488 C.ar    1  UNL1        0.0534
     41 C         141.1002  132.4524  155.1002 C.2     1  UNL1        0.0058
     42 C         141.6679  131.2404  154.4231 C.2     1  UNL1        0.0152
     43 C         140.8322  130.0037  154.2745 C.2     1  UNL1        0.0729
     44 O         141.2925  128.8903  153.3808 O.co2   1  UNL1       -0.5446
     45 O         139.5361  129.8804  155.0195 O.co2   1  UNL1       -0.5446
     46 O         142.9594  132.7344  157.4377 O.3     1  UNL1       -0.4602
     47 C         144.9686  131.5964  156.2469 C.3     1  UNL1        0.0512
     48 C         144.1805  131.8652  157.4946 C.3     1  UNL1        0.2072
@<TRIPOS>UNITY_ATOM_ATTR
44 1
charge -1
@<TRIPOS>BOND
     1    47    48    1
     2    48    46    1
     3    46    35    1
     4    35    36   ar
     5    36    37   ar
     6    37    31    1
     7    31    32   am
     8    32    33    2
     9    32    27    1
    10    27     1    1
    11     1     2   am
    12     2     3    2
    13     2     5    1
    14     5     6   ar
    15     6     7   ar
    16     7     8   ar
    17     8     9   ar
    18     9    22    1
    19    22    23    1
    20    23    24    1
    21    24    25    1
    22    25    26    1
    23     9    10   ar
    24    10    15    1
    25    15    16   ar
    26    16    17   ar
    27    17    18   ar
    28    18    19    1
    29    18    20   ar
    30    20    21   ar
    31    10    11   ar
    32    11    12    1
    33    11    13   ar
    34    13    14   ar
    35    27    28    1
    36    28    29    1
    37    29    30    1
    38    37    38   ar
    39    38    39   ar
    40    39    40   ar
    41    40    41    1
    42    41    42    2
    43    42    43    1
    44    43    44   ar
    45    43    45   ar
    46    40    35   ar
    47    30    27    1
    48    14     5   ar
    49    13     8   ar
    50    26    22    1
    51    21    15   ar
    52    31    34    1
    53     1     4    1
@<TRIPOS>MOLECULE
*****
 48 53 0 0 0
SMALL
GASTEIGER

@<TRIPOS>ATOM
      1 N         137.6435  141.0665  156.2554 N.am    1  UNL1       -0.2964
      2 C         138.3868  140.1630  157.1941 C.2     1  UNL1        0.2461
      3 O         138.8711  138.8246  156.7208 O.2     1  UNL1       -0.2701
      4 H         137.3256  141.9450  156.5660 H       1  UNL1        0.1501
      5 C         138.6458  140.5980  158.6061 C.ar    1  UNL1        0.0548
      6 C         138.1532  141.9324  159.0822 C.ar    1  UNL1        0.0046
      7 C         138.4122  142.3673  160.4941 C.ar    1  UNL1        0.0013
      8 C         139.1639  141.4679  161.4300 C.ar    1  UNL1        0.0133
      9 C         139.5667  141.6252  162.8664 C.ar    1  UNL1       -0.0038
     10 C         140.3083  140.3881  163.2780 C.ar    1  UNL1        0.0738
     11 N         140.3638  139.4661  162.0961 N.ar    1  UNL1       -0.3242
     12 C         141.0127  138.1142  162.0622 C.3     1  UNL1        0.1305
     13 C         139.6566  140.1335  160.9540 C.ar    1  UNL1        0.0598
     14 C         139.3975  139.6986  159.5420 C.ar    1  UNL1        0.0217
     15 C         140.8919  140.1199  164.6336 C.ar    1  UNL1        0.0969
     16 C         140.0002  140.0780  165.8391 C.ar    1  UNL1        0.0229
     17 C         140.5837  139.8098  167.1946 C.ar    1  UNL1        0.0328
     18 C         142.0589  139.5835  167.3447 C.ar    1  UNL1        0.1592
     19 F         142.6425  139.3153  168.7003 F       1  UNL1       -0.2025
     20 C         142.9506  139.6254  166.1392 C.ar    1  UNL1        0.1284
     21 N         142.3671  139.8936  164.7837 N.ar    1  UNL1       -0.2400
     22 C         139.2785  142.8115  163.7380 C.3     1  UNL1        0.0238
     23 C         137.9329  143.2104  164.2674 C.3     1  UNL1        0.0044
     24 C         138.1080  144.4525  165.0899 C.3     1  UNL1        0.0003
     25 C         139.5617  144.8213  165.0688 C.3     1  UNL1        0.0003
     26 C         140.2852  143.8071  164.2333 C.3     1  UNL1        0.0044
     27 C         137.3844  140.6315  154.8433 C.3     1  UNL1        0.1261
     28 C         138.7353  141.1421  154.4382 C.3     1  UNL1        0.0270
     29 C         138.4763  140.7072  153.0263 C.3     1  UNL1        0.0043
     30 C         137.1254  140.1965  153.4314 C.3     1  UNL1        0.0270
     31 N         135.0804  141.0191  155.9796 N.am    1  UNL1       -0.2680
     32 C         136.0335  140.1208  155.2484 C.2     1  UNL1        0.2430
     33 O         135.6356  138.7117  154.9224 O.2     1  UNL1       -0.2730
     34 H         135.3415  141.9439  156.1937 H       1  UNL1        0.1563
     35 C         131.1408  140.5822  156.1761 C.ar    1  UNL1        0.2258
     36 N         132.4917  141.0928  155.7711 N.ar    1  UNL1       -0.1966
     37 C         133.7294  140.5084  156.3847 C.ar    1  UNL1        0.1373
     38 C         133.6161  139.4133  157.4035 C.ar    1  UNL1        0.0347
     39 C         132.2651  138.9025  157.8086 C.ar    1  UNL1        0.0075
     40 C         131.0275  139.4870  157.1949 C.ar    1  UNL1        0.0534
     41 C         129.6765  138.9763  157.6000 C.2     1  UNL1        0.0058
     42 C         129.2736  137.5714  157.2623 C.2     1  UNL1        0.0152
     43 C         127.9227  137.0607  157.6674 C.2     1  UNL1        0.0729
     44 O         127.3049  137.5146  158.9567 O.co2   1  UNL1       -0.5446
     45 O         127.1894  136.0962  156.7831 O.co2   1  UNL1       -0.5446
     46 O         129.9031  141.1666  155.5625 O.3     1  UNL1       -0.4602
     47 C         129.4063  143.7036  155.3038 C.3     1  UNL1        0.0512
     48 C         129.9887  142.4320  154.7617 C.3     1  UNL1        0.2072
@<TRIPOS>UNITY_ATOM_ATTR
44 1
charge -1
@<TRIPOS>BOND
     1    47    48    1
     2    48    46    1
     3    46    35    1
     4    35    36   ar
     5    36    37   ar
     6    37    31    1
     7    31    32   am
     8    32    33    2
     9    32    27    1
    10    27     1    1
    11     1     2   am
    12     2     3    2
    13     2     5    1
    14     5     6   ar
    15     6     7   ar
    16     7     8   ar
    17     8     9   ar
    18     9    22    1
    19    22    23    1
    20    23    24    1
    21    24    25    1
    22    25    26    1
    23     9    10   ar
    24    10    15    1
    25    15    16   ar
    26    16    17   ar
    27    17    18   ar
    28    18    19    1
    29    18    20   ar
    30    20    21   ar
    31    10    11   ar
    32    11    12    1
    33    11    13   ar
    34    13    14   ar
    35    27    28    1
    36    28    29    1
    37    29    30    1
    38    37    38   ar
    39    38    39   ar
    40    39    40   ar
    41    40    41    1
    42    41    42    2
    43    42    43    1
    44    43    44   ar
    45    43    45   ar
    46    40    35   ar
    47    30    27    1
    48    14     5   ar
    49    13     8   ar
    50    26    22    1
    51    21    15   ar
    52    31    34    1
    53     1     4    1
