@<TRIPOS>MOLECULE
*****
 34 38 0 0 0
SMALL
GASTEIGER

@<TRIPOS>ATOM
      1 C         141.7779  138.7181  161.9995 C.ar    1  UNL1        0.0541
      2 C         140.9525  139.1864  160.8378 C.ar    1  UNL1        0.0180
      3 C         141.3793  138.8643  159.4363 C.ar    1  UNL1        0.0382
      4 C         142.6314  138.0740  159.1965 C.ar    1  UNL1        0.1385
      5 C         143.4568  137.6057  160.3581 C.ar    1  UNL1        0.0382
      6 C         143.0301  137.9278  161.7596 C.ar    1  UNL1        0.0180
      7 O         138.8204  139.3978  168.1672 O.2     1  UNL1       -0.2699
      8 C         140.0711  140.0063  167.6054 C.2     1  UNL1        0.2494
      9 N         140.4978  139.6842  166.2040 N.am    1  UNL1       -0.2660
     10 C         141.7485  140.2927  165.6422 C.3     1  UNL1        0.1160
     11 C         142.1752  139.9706  164.2407 C.3     1  UNL1        0.1197
     12 N         141.3512  139.0401  163.4009 N.am    1  UNL1       -0.2555
     13 C         140.1005  138.4317  163.9627 C.2     1  UNL1        0.2497
     14 O         139.2765  137.5012  163.1229 O.2     1  UNL1       -0.2727
     15 C         139.6738  138.7537  165.3642 C.3     1  UNL1        0.1799
     16 C         140.8951  140.9368  168.4453 C.ar    1  UNL1        0.0537
     17 C         142.1955  140.4684  169.0280 C.ar    1  UNL1        0.0068
     18 C         143.0194  141.3989  169.8677 C.ar    1  UNL1        0.0298
     19 C         142.5430  142.7978  170.1248 C.ar    1  UNL1        0.1401
     20 F         143.3670  143.7283  170.9646 F       1  UNL1       -0.2042
     21 C         141.2426  143.2662  169.5421 C.ar    1  UNL1        0.0298
     22 C         140.4187  142.3357  168.7024 C.ar    1  UNL1        0.0068
     23 O         143.0581  137.7520  157.7950 O.3     1  UNL1       -0.4791
     24 C         142.7553  136.4045  157.2097 C.3     1  UNL1        0.1687
     25 C         141.7682  136.2788  156.0874 C.3     1  UNL1        0.0609
     26 C         141.4655  134.9313  155.5021 C.3     1  UNL1        0.0758
     27 N         142.1499  133.7094  156.0392 N.3     1  UNL1       -0.2737
     28 C         143.1371  133.8350  157.1616 C.3     1  UNL1        0.0758
     29 C         143.4398  135.1825  157.7469 C.3     1  UNL1        0.0609
     30 C         141.8472  132.3619  155.4539 C.3     1  UNL1        0.0575
     31 C         142.4154  131.0524  155.9152 C.3     1  UNL1        0.0160
     32 C         141.8424  129.9685  155.0510 C.3     1  UNL1        0.0014
     33 C         140.9202  130.6079  154.0556 C.3     1  UNL1        0.0014
     34 C         140.9232  132.0871  154.3047 C.3     1  UNL1        0.0160
@<TRIPOS>BOND
     1     7     8    2
     2     8    16    1
     3    16    17   ar
     4    17    18   ar
     5    18    19   ar
     6    19    20    1
     7    19    21   ar
     8    21    22   ar
     9     8     9   am
    10     9    10    1
    11    10    11    1
    12    11    12    1
    13    12     1    1
    14     1     2   ar
    15     2     3   ar
    16     3     4   ar
    17     4    23    1
    18    23    24    1
    19    24    25    1
    20    25    26    1
    21    26    27    1
    22    27    30    1
    23    30    31    1
    24    31    32    1
    25    32    33    1
    26    33    34    1
    27    27    28    1
    28    28    29    1
    29     4     5   ar
    30     5     6   ar
    31    12    13   am
    32    13    14    2
    33    13    15    1
    34    22    16   ar
    35    15     9    1
    36     6     1   ar
    37    29    24    1
    38    34    30    1
@<TRIPOS>MOLECULE
*****
 34 38 0 0 0
SMALL
GASTEIGER

@<TRIPOS>ATOM
      1 C         139.7053  141.6301  161.6999 C.ar    1  UNL1        0.0541
      2 C         138.4869  142.2785  161.1126 C.ar    1  UNL1        0.0180
      3 C         138.4187  142.5507  159.6390 C.ar    1  UNL1        0.0382
      4 C         139.5689  142.1744  158.7528 C.ar    1  UNL1        0.1385
      5 C         140.7873  141.5259  159.3401 C.ar    1  UNL1        0.0382
      6 C         140.8556  141.2538  160.8136 C.ar    1  UNL1        0.0180
      7 O         139.1429  139.4500  168.1945 O.2     1  UNL1       -0.2699
      8 C         139.9782  140.5415  167.5940 C.2     1  UNL1        0.2494
      9 N         139.9100  140.8137  166.1205 N.am    1  UNL1       -0.2660
     10 C         140.7453  141.9053  165.5199 C.3     1  UNL1        0.1160
     11 C         140.6771  142.1774  164.0463 C.3     1  UNL1        0.1197
     12 N         139.7735  141.3580  163.1734 N.am    1  UNL1       -0.2555
     13 C         138.9382  140.2664  163.7740 C.2     1  UNL1        0.2497
     14 O         138.0346  139.4469  162.9010 O.2     1  UNL1       -0.2727
     15 C         139.0064  139.9942  165.2474 C.3     1  UNL1        0.1799
     16 C         140.8818  141.3610  168.4670 C.ar    1  UNL1        0.0537
     17 C         140.3687  142.6158  169.1089 C.ar    1  UNL1        0.0068
     18 C         141.2723  143.4352  169.9819 C.ar    1  UNL1        0.0298
     19 C         142.6890  142.9998  170.2129 C.ar    1  UNL1        0.1401
     20 F         143.5926  143.8192  171.0859 F       1  UNL1       -0.2042
     21 C         143.2021  141.7450  169.5710 C.ar    1  UNL1        0.0298
     22 C         142.2985  140.9256  168.6980 C.ar    1  UNL1        0.0068
     23 O         139.5007  142.4465  157.2793 O.3     1  UNL1       -0.4791
     24 C         139.4411  143.8596  156.7796 C.3     1  UNL1        0.1687
     25 C         140.2243  144.9342  157.4736 C.3     1  UNL1        0.0609
     26 C         140.1647  146.3472  156.9738 C.3     1  UNL1        0.0758
     27 N         139.3220  146.6856  155.7801 N.3     1  UNL1       -0.2737
     28 C         138.5387  145.6110  155.0860 C.3     1  UNL1        0.0758
     29 C         138.5983  144.1979  155.5857 C.3     1  UNL1        0.0609
     30 C         139.2624  148.0987  155.2803 C.3     1  UNL1        0.0575
     31 C         139.8249  148.5995  153.9830 C.3     1  UNL1        0.0160
     32 C         139.5400  150.0694  153.8911 C.3     1  UNL1        0.0014
     33 C         138.8015  150.4770  155.1314 C.3     1  UNL1        0.0014
     34 C         138.6299  149.2590  155.9900 C.3     1  UNL1        0.0160
@<TRIPOS>BOND
     1     7     8    2
     2     8    16    1
     3    16    17   ar
     4    17    18   ar
     5    18    19   ar
     6    19    20    1
     7    19    21   ar
     8    21    22   ar
     9     8     9   am
    10     9    10    1
    11    10    11    1
    12    11    12    1
    13    12     1    1
    14     1     2   ar
    15     2     3   ar
    16     3     4   ar
    17     4    23    1
    18    23    24    1
    19    24    25    1
    20    25    26    1
    21    26    27    1
    22    27    30    1
    23    30    31    1
    24    31    32    1
    25    32    33    1
    26    33    34    1
    27    27    28    1
    28    28    29    1
    29     4     5   ar
    30     5     6   ar
    31    12    13   am
    32    13    14    2
    33    13    15    1
    34    22    16   ar
    35    15     9    1
    36     6     1   ar
    37    29    24    1
    38    34    30    1
@<TRIPOS>MOLECULE
*****
 34 38 0 0 0
SMALL
GASTEIGER

@<TRIPOS>ATOM
      1 C         141.1984  138.9880  162.2539 C.ar    1  UNL1        0.0541
      2 C         142.2814  138.0129  161.8986 C.ar    1  UNL1        0.0180
      3 C         142.5775  137.7126  160.4591 C.ar    1  UNL1        0.0382
      4 C         141.7907  138.3874  159.3749 C.ar    1  UNL1        0.1385
      5 C         140.7076  139.3625  159.7302 C.ar    1  UNL1        0.0382
      6 C         140.4115  139.6628  161.1696 C.ar    1  UNL1        0.0180
      7 O         138.8237  139.5656  168.6786 O.2     1  UNL1       -0.2699
      8 C         140.0138  140.1893  168.0118 C.2     1  UNL1        0.2494
      9 N         140.3100  139.8890  166.5723 N.am    1  UNL1       -0.2660
     10 C         141.5000  140.5127  165.9055 C.3     1  UNL1        0.1160
     11 C         141.7961  140.2124  164.4660 C.3     1  UNL1        0.1197
     12 N         140.9022  139.2883  163.6933 N.am    1  UNL1       -0.2555
     13 C         139.7122  138.6646  164.3602 C.2     1  UNL1        0.2497
     14 O         138.8182  137.7405  163.5876 O.2     1  UNL1       -0.2727
     15 C         139.4160  138.9649  165.7996 C.3     1  UNL1        0.1799
     16 C         140.9077  141.1134  168.7845 C.ar    1  UNL1        0.0537
     17 C         142.2709  140.6555  169.2110 C.ar    1  UNL1        0.0068
     18 C         143.1648  141.5796  169.9836 C.ar    1  UNL1        0.0298
     19 C         142.6955  142.9616  170.3298 C.ar    1  UNL1        0.1401
     20 F         143.5894  143.8857  171.1024 F       1  UNL1       -0.2042
     21 C         141.3323  143.4195  169.9032 C.ar    1  UNL1        0.0298
     22 C         140.4384  142.4954  169.1306 C.ar    1  UNL1        0.0068
     23 O         142.0868  138.0871  157.9355 O.3     1  UNL1       -0.4791
     24 C         143.1636  138.8452  157.2173 C.3     1  UNL1        0.1687
     25 C         143.7245  140.1005  157.8169 C.3     1  UNL1        0.0609
     26 C         144.8013  140.8586  157.0987 C.3     1  UNL1        0.0758
     27 N         145.3171  140.3615  155.7809 N.3     1  UNL1       -0.2737
     28 C         144.7562  139.1061  155.1812 C.3     1  UNL1        0.0758
     29 C         143.6794  138.3480  155.8994 C.3     1  UNL1        0.0609
     30 C         146.3939  141.1196  155.0627 C.3     1  UNL1        0.0575
     31 C         147.5600  141.8136  155.7021 C.3     1  UNL1        0.0160
     32 C         148.3804  142.4397  154.6135 C.3     1  UNL1        0.0014
     33 C         147.7214  142.1328  153.3015 C.3     1  UNL1        0.0014
     34 C         146.4937  141.3169  153.5791 C.3     1  UNL1        0.0160
@<TRIPOS>BOND
     1     7     8    2
     2     8    16    1
     3    16    17   ar
     4    17    18   ar
     5    18    19   ar
     6    19    20    1
     7    19    21   ar
     8    21    22   ar
     9     8     9   am
    10     9    10    1
    11    10    11    1
    12    11    12    1
    13    12     1    1
    14     1     2   ar
    15     2     3   ar
    16     3     4   ar
    17     4    23    1
    18    23    24    1
    19    24    25    1
    20    25    26    1
    21    26    27    1
    22    27    30    1
    23    30    31    1
    24    31    32    1
    25    32    33    1
    26    33    34    1
    27    27    28    1
    28    28    29    1
    29     4     5   ar
    30     5     6   ar
    31    12    13   am
    32    13    14    2
    33    13    15    1
    34    22    16   ar
    35    15     9    1
    36     6     1   ar
    37    29    24    1
    38    34    30    1
@<TRIPOS>MOLECULE
*****
 34 38 0 0 0
SMALL
GASTEIGER

@<TRIPOS>ATOM
      1 C         142.6246  141.2911  161.5652 C.ar    1  UNL1        0.0541
      2 C         143.1721  142.6125  161.1133 C.ar    1  UNL1        0.0180
      3 C         143.2174  142.9451  159.6513 C.ar    1  UNL1        0.0382
      4 C         142.7152  141.9564  158.6413 C.ar    1  UNL1        0.1385
      5 C         142.1677  140.6350  159.0932 C.ar    1  UNL1        0.0382
      6 C         142.1225  140.3024  160.5551 C.ar    1  UNL1        0.0180
      7 O         143.2157  138.7874  167.9394 O.2     1  UNL1       -0.2699
      8 C         142.4434  139.9605  167.4129 C.2     1  UNL1        0.2494
      9 N         142.4887  140.2932  165.9510 N.am    1  UNL1       -0.2660
     10 C         141.7164  141.4664  165.4245 C.3     1  UNL1        0.1160
     11 C         141.7618  141.7990  163.9625 C.3     1  UNL1        0.1197
     12 N         142.5794  140.9585  163.0271 N.am    1  UNL1       -0.2555
     13 C         143.3517  139.7853  163.5536 C.2     1  UNL1        0.2497
     14 O         144.1693  138.9448  162.6182 O.2     1  UNL1       -0.2727
     15 C         143.3064  139.4527  165.0155 C.3     1  UNL1        0.1799
     16 C         141.6258  140.8011  168.3484 C.ar    1  UNL1        0.0537
     17 C         142.1543  142.1206  168.8274 C.ar    1  UNL1        0.0068
     18 C         141.3367  142.9610  169.7628 C.ar    1  UNL1        0.0298
     19 C         139.9906  142.4820  170.2193 C.ar    1  UNL1        0.1401
     20 F         139.1729  143.3225  171.1548 F       1  UNL1       -0.2042
     21 C         139.4620  141.1624  169.7403 C.ar    1  UNL1        0.0298
     22 C         140.2797  140.3220  168.8049 C.ar    1  UNL1        0.0068
     23 O         142.7605  142.2891  157.1793 O.3     1  UNL1       -0.4791
     24 C         144.0812  142.4159  156.4796 C.3     1  UNL1        0.1687
     25 C         145.3459  142.0330  157.1894 C.3     1  UNL1        0.0609
     26 C         146.6666  142.1599  156.4896 C.3     1  UNL1        0.0758
     27 N         146.7226  142.6697  155.0801 N.3     1  UNL1       -0.2737
     28 C         145.4579  143.0527  154.3702 C.3     1  UNL1        0.0758
     29 C         144.1372  142.9258  155.0700 C.3     1  UNL1        0.0609
     30 C         148.0433  142.7966  154.3803 C.3     1  UNL1        0.0575
     31 C         148.3904  143.8086  153.3289 C.3     1  UNL1        0.0160
     32 C         149.8104  143.5712  152.9079 C.3     1  UNL1        0.0014
     33 C         150.3410  142.4125  153.6991 C.3     1  UNL1        0.0014
     34 C         149.2488  141.9338  154.6091 C.3     1  UNL1        0.0160
@<TRIPOS>BOND
     1     7     8    2
     2     8    16    1
     3    16    17   ar
     4    17    18   ar
     5    18    19   ar
     6    19    20    1
     7    19    21   ar
     8    21    22   ar
     9     8     9   am
    10     9    10    1
    11    10    11    1
    12    11    12    1
    13    12     1    1
    14     1     2   ar
    15     2     3   ar
    16     3     4   ar
    17     4    23    1
    18    23    24    1
    19    24    25    1
    20    25    26    1
    21    26    27    1
    22    27    30    1
    23    30    31    1
    24    31    32    1
    25    32    33    1
    26    33    34    1
    27    27    28    1
    28    28    29    1
    29     4     5   ar
    30     5     6   ar
    31    12    13   am
    32    13    14    2
    33    13    15    1
    34    22    16   ar
    35    15     9    1
    36     6     1   ar
    37    29    24    1
    38    34    30    1
@<TRIPOS>MOLECULE
*****
 34 38 0 0 0
SMALL
GASTEIGER

@<TRIPOS>ATOM
      1 C         142.5428  138.6273  159.6810 C.ar    1  UNL1        0.0541
      2 C         143.4968  138.2284  160.7677 C.ar    1  UNL1        0.0180
      3 C         142.9719  137.7914  162.1033 C.ar    1  UNL1        0.0382
      4 C         141.4932  137.7533  162.3521 C.ar    1  UNL1        0.1385
      5 C         140.5393  138.1522  161.2654 C.ar    1  UNL1        0.0382
      6 C         141.0641  138.5891  159.9298 C.ar    1  UNL1        0.0180
      7 O         144.4901  139.4809  153.1442 O.2     1  UNL1       -0.2699
      8 C         144.6420  140.3752  154.3389 C.2     1  UNL1        0.2494
      9 N         144.1172  139.9382  155.6744 N.am    1  UNL1       -0.2660
     10 C         144.2691  140.8325  156.8691 C.3     1  UNL1        0.1160
     11 C         143.7443  140.3954  158.2046 C.3     1  UNL1        0.1197
     12 N         143.0676  139.0642  158.3455 N.am    1  UNL1       -0.2555
     13 C         142.9157  138.1700  157.1508 C.2     1  UNL1        0.2497
     14 O         142.2390  136.8387  157.2917 O.2     1  UNL1       -0.2727
     15 C         143.4405  138.6069  155.8153 C.3     1  UNL1        0.1799
     16 C         145.3187  141.7064  154.1980 C.ar    1  UNL1        0.0537
     17 C         146.7899  141.8316  154.4623 C.ar    1  UNL1        0.0068
     18 C         147.4665  143.1629  154.3214 C.ar    1  UNL1        0.0298
     19 C         146.6720  144.3689  153.9162 C.ar    1  UNL1        0.1401
     20 F         147.3488  145.7002  153.7753 F       1  UNL1       -0.2042
     21 C         145.2008  144.2437  153.6518 C.ar    1  UNL1        0.0298
     22 C         144.5242  142.9125  153.7928 C.ar    1  UNL1        0.0068
     23 O         140.9684  137.3164  163.6876 O.3     1  UNL1       -0.4791
     24 C         140.8094  138.3161  164.7945 C.3     1  UNL1        0.1687
     25 C         142.0181  138.8378  165.5134 C.3     1  UNL1        0.0609
     26 C         141.8590  139.8375  166.6203 C.3     1  UNL1        0.0758
     27 N         140.4912  140.3154  167.0084 N.3     1  UNL1       -0.2737
     28 C         139.2824  139.7937  166.2895 C.3     1  UNL1        0.0758
     29 C         139.4415  138.7940  165.1826 C.3     1  UNL1        0.0609
     30 C         140.3321  141.3151  168.1154 C.3     1  UNL1        0.0575
     31 C         140.7118  142.7651  168.0552 C.3     1  UNL1        0.0160
     32 C         140.3797  143.3864  169.3795 C.3     1  UNL1        0.0014
     33 C         139.7949  142.3205  170.2581 C.3     1  UNL1        0.0014
     34 C         139.7655  141.0404  169.4768 C.3     1  UNL1        0.0160
@<TRIPOS>BOND
     1     7     8    2
     2     8    16    1
     3    16    17   ar
     4    17    18   ar
     5    18    19   ar
     6    19    20    1
     7    19    21   ar
     8    21    22   ar
     9     8     9   am
    10     9    10    1
    11    10    11    1
    12    11    12    1
    13    12     1    1
    14     1     2   ar
    15     2     3   ar
    16     3     4   ar
    17     4    23    1
    18    23    24    1
    19    24    25    1
    20    25    26    1
    21    26    27    1
    22    27    30    1
    23    30    31    1
    24    31    32    1
    25    32    33    1
    26    33    34    1
    27    27    28    1
    28    28    29    1
    29     4     5   ar
    30     5     6   ar
    31    12    13   am
    32    13    14    2
    33    13    15    1
    34    22    16   ar
    35    15     9    1
    36     6     1   ar
    37    29    24    1
    38    34    30    1
@<TRIPOS>MOLECULE
*****
 34 38 0 0 0
SMALL
GASTEIGER

@<TRIPOS>ATOM
      1 C         140.8609  139.8460  160.4446 C.ar    1  UNL1        0.0541
      2 C         139.7434  139.0045  159.9031 C.ar    1  UNL1        0.0180
      3 C         139.8775  138.3556  158.5573 C.ar    1  UNL1        0.0382
      4 C         141.1289  138.5482  157.7531 C.ar    1  UNL1        0.1385
      5 C         142.2464  139.3897  158.2946 C.ar    1  UNL1        0.0382
      6 C         142.1123  140.0386  159.6403 C.ar    1  UNL1        0.0180
      7 O         139.6204  143.7593  165.9579 O.2     1  UNL1       -0.2699
      8 C         140.3249  142.4415  165.8275 C.2     1  UNL1        0.2494
      9 N         140.4589  141.7926  164.4818 N.am    1  UNL1       -0.2660
     10 C         141.1633  140.4747  164.3514 C.3     1  UNL1        0.1160
     11 C         141.2973  139.8259  163.0056 C.3     1  UNL1        0.1197
     12 N         140.7269  140.4949  161.7903 N.am    1  UNL1       -0.2555
     13 C         140.0224  141.8127  161.9207 C.2     1  UNL1        0.2497
     14 O         139.4520  142.4817  160.7054 O.2     1  UNL1       -0.2727
     15 C         139.8884  142.4616  163.2664 C.3     1  UNL1        0.1799
     16 C         140.8953  141.7725  167.0429 C.ar    1  UNL1        0.0537
     17 C         140.0730  140.7774  167.8068 C.ar    1  UNL1        0.0068
     18 C         140.6434  140.1085  169.0222 C.ar    1  UNL1        0.0298
     19 C         142.0362  140.4346  169.4736 C.ar    1  UNL1        0.1401
     20 F         142.6067  139.7656  170.6890 F       1  UNL1       -0.2042
     21 C         142.8586  141.4296  168.7097 C.ar    1  UNL1        0.0298
     22 C         142.2881  142.0986  167.4943 C.ar    1  UNL1        0.0068
     23 O         141.2629  137.8994  156.4074 O.3     1  UNL1       -0.4791
     24 C         141.7568  136.4870  156.3016 C.3     1  UNL1        0.1687
     25 C         141.0648  135.5167  155.3909 C.3     1  UNL1        0.0609
     26 C         141.5587  134.1043  155.2851 C.3     1  UNL1        0.0758
     27 N         142.7447  133.6622  156.0901 N.3     1  UNL1       -0.2737
     28 C         143.4368  134.6325  157.0009 C.3     1  UNL1        0.0758
     29 C         142.9429  136.0449  157.1067 C.3     1  UNL1        0.0609
     30 C         143.2386  132.2498  155.9843 C.3     1  UNL1        0.0575
     31 C         144.6706  131.8089  156.0551 C.3     1  UNL1        0.0160
     32 C         144.7042  130.3169  155.9037 C.3     1  UNL1        0.0014
     33 C         143.2930  129.8357  155.7393 C.3     1  UNL1        0.0014
     34 C         142.3872  131.0303  155.7891 C.3     1  UNL1        0.0160
@<TRIPOS>BOND
     1     7     8    2
     2     8    16    1
     3    16    17   ar
     4    17    18   ar
     5    18    19   ar
     6    19    20    1
     7    19    21   ar
     8    21    22   ar
     9     8     9   am
    10     9    10    1
    11    10    11    1
    12    11    12    1
    13    12     1    1
    14     1     2   ar
    15     2     3   ar
    16     3     4   ar
    17     4    23    1
    18    23    24    1
    19    24    25    1
    20    25    26    1
    21    26    27    1
    22    27    30    1
    23    30    31    1
    24    31    32    1
    25    32    33    1
    26    33    34    1
    27    27    28    1
    28    28    29    1
    29     4     5   ar
    30     5     6   ar
    31    12    13   am
    32    13    14    2
    33    13    15    1
    34    22    16   ar
    35    15     9    1
    36     6     1   ar
    37    29    24    1
    38    34    30    1
@<TRIPOS>MOLECULE
*****
 34 38 0 0 0
SMALL
GASTEIGER

@<TRIPOS>ATOM
      1 C         142.1528  140.8133  161.6216 C.ar    1  UNL1        0.0541
      2 C         142.9254  141.9462  161.0137 C.ar    1  UNL1        0.0180
      3 C         142.8784  142.1763  159.5322 C.ar    1  UNL1        0.0382
      4 C         142.0588  141.2736  158.6586 C.ar    1  UNL1        0.1385
      5 C         141.2861  140.1407  159.2665 C.ar    1  UNL1        0.0382
      6 C         141.3331  139.9106  160.7479 C.ar    1  UNL1        0.0180
      7 O         143.1982  138.7981  168.1097 O.2     1  UNL1       -0.2699
      8 C         142.3406  139.8928  167.5475 C.2     1  UNL1        0.2494
      9 N         142.2936  140.1230  166.0661 N.am    1  UNL1       -0.2660
     10 C         141.4360  141.2177  165.5040 C.3     1  UNL1        0.1160
     11 C         141.3891  141.4478  164.0224 C.3     1  UNL1        0.1197
     12 N         142.1997  140.5832  163.1031 N.am    1  UNL1       -0.2555
     13 C         143.0574  139.4885  163.6652 C.2     1  UNL1        0.2497
     14 O         143.8680  138.6238  162.7459 O.2     1  UNL1       -0.2727
     15 C         143.1043  139.2583  165.1467 C.3     1  UNL1        0.1799
     16 C         141.5299  140.7575  168.4670 C.ar    1  UNL1        0.0537
     17 C         140.2267  140.2551  169.0140 C.ar    1  UNL1        0.0068
     18 C         139.4161  141.1197  169.9334 C.ar    1  UNL1        0.0298
     19 C         139.9087  142.4867  170.3057 C.ar    1  UNL1        0.1401
     20 F         139.0980  143.3513  171.2251 F       1  UNL1       -0.2042
     21 C         141.2118  142.9891  169.7587 C.ar    1  UNL1        0.0298
     22 C         142.0224  142.1245  168.8393 C.ar    1  UNL1        0.0068
     23 O         142.0118  141.5037  157.1771 O.3     1  UNL1       -0.4791
     24 C         141.5583  142.8279  156.6378 C.3     1  UNL1        0.1687
     25 C         142.5696  143.8452  156.1994 C.3     1  UNL1        0.0609
     26 C         142.1162  145.1694  155.6601 C.3     1  UNL1        0.0758
     27 N         140.6514  145.4763  155.5592 N.3     1  UNL1       -0.2737
     28 C         139.6400  144.4590  155.9977 C.3     1  UNL1        0.0758
     29 C         140.0935  143.1348  156.5370 C.3     1  UNL1        0.0609
     30 C         140.1979  146.8005  155.0199 C.3     1  UNL1        0.0575
     31 C         140.6327  147.4208  153.7251 C.3     1  UNL1        0.0160
     32 C         139.9335  148.7406  153.5857 C.3     1  UNL1        0.0014
     33 C         139.0667  148.9360  154.7942 C.3     1  UNL1        0.0014
     34 C         139.2301  147.7369  155.6806 C.3     1  UNL1        0.0160
@<TRIPOS>BOND
     1     7     8    2
     2     8    16    1
     3    16    17   ar
     4    17    18   ar
     5    18    19   ar
     6    19    20    1
     7    19    21   ar
     8    21    22   ar
     9     8     9   am
    10     9    10    1
    11    10    11    1
    12    11    12    1
    13    12     1    1
    14     1     2   ar
    15     2     3   ar
    16     3     4   ar
    17     4    23    1
    18    23    24    1
    19    24    25    1
    20    25    26    1
    21    26    27    1
    22    27    30    1
    23    30    31    1
    24    31    32    1
    25    32    33    1
    26    33    34    1
    27    27    28    1
    28    28    29    1
    29     4     5   ar
    30     5     6   ar
    31    12    13   am
    32    13    14    2
    33    13    15    1
    34    22    16   ar
    35    15     9    1
    36     6     1   ar
    37    29    24    1
    38    34    30    1
@<TRIPOS>MOLECULE
*****
 34 38 0 0 0
SMALL
GASTEIGER

@<TRIPOS>ATOM
      1 C         141.9639  138.5368  159.6706 C.ar    1  UNL1        0.0541
      2 C         141.3498  138.0171  160.9367 C.ar    1  UNL1        0.0180
      3 C         142.1113  138.0952  162.2267 C.ar    1  UNL1        0.0382
      4 C         143.4868  138.6929  162.2506 C.ar    1  UNL1        0.1385
      5 C         144.1009  139.2126  160.9846 C.ar    1  UNL1        0.0382
      6 C         143.3395  139.1345  159.6946 C.ar    1  UNL1        0.0180
      7 O         139.3350  137.2476  153.4516 O.2     1  UNL1       -0.2699
      8 C         138.9181  138.2246  154.5107 C.2     1  UNL1        0.2494
      9 N         139.6795  138.3026  155.8006 N.am    1  UNL1       -0.2660
     10 C         139.2626  139.2796  156.8597 C.3     1  UNL1        0.1160
     11 C         140.0241  139.3577  158.1498 C.3     1  UNL1        0.1197
     12 N         141.2024  138.4587  158.3807 N.am    1  UNL1       -0.2555
     13 C         141.6193  137.4817  157.3216 C.2     1  UNL1        0.2497
     14 O         142.7977  136.5828  157.5525 O.2     1  UNL1       -0.2727
     15 C         140.8579  137.4037  156.0316 C.3     1  UNL1        0.1799
     16 C         137.7397  139.1236  154.2797 C.ar    1  UNL1        0.0537
     17 C         136.3604  138.6607  154.6446 C.ar    1  UNL1        0.0068
     18 C         135.1820  139.5597  154.4137 C.ar    1  UNL1        0.0298
     19 C         135.3830  140.9215  153.8178 C.ar    1  UNL1        0.1401
     20 F         134.2046  141.8204  153.5868 F       1  UNL1       -0.2042
     21 C         136.7623  141.3843  153.4528 C.ar    1  UNL1        0.0298
     22 C         137.9407  140.4854  153.6838 C.ar    1  UNL1        0.0068
     23 O         144.2482  138.7710  163.5406 O.3     1  UNL1       -0.4791
     24 C         143.7176  139.5951  164.6761 C.3     1  UNL1        0.1687
     25 C         143.8676  141.0873  164.6539 C.3     1  UNL1        0.0609
     26 C         143.3370  141.9114  165.7894 C.3     1  UNL1        0.0758
     27 N         142.6563  141.2432  166.9470 N.3     1  UNL1       -0.2737
     28 C         142.5062  139.7509  166.9692 C.3     1  UNL1        0.0758
     29 C         143.0368  138.9268  165.8337 C.3     1  UNL1        0.0609
     30 C         142.1256  142.0673  168.0825 C.3     1  UNL1        0.0575
     31 C         142.9055  142.5254  169.2792 C.3     1  UNL1        0.0160
     32 C         141.9837  143.3192  170.1569 C.3     1  UNL1        0.0014
     33 C         140.6343  143.3518  169.5027 C.3     1  UNL1        0.0014
     34 C         140.7220  142.5780  168.2206 C.3     1  UNL1        0.0160
@<TRIPOS>BOND
     1     7     8    2
     2     8    16    1
     3    16    17   ar
     4    17    18   ar
     5    18    19   ar
     6    19    20    1
     7    19    21   ar
     8    21    22   ar
     9     8     9   am
    10     9    10    1
    11    10    11    1
    12    11    12    1
    13    12     1    1
    14     1     2   ar
    15     2     3   ar
    16     3     4   ar
    17     4    23    1
    18    23    24    1
    19    24    25    1
    20    25    26    1
    21    26    27    1
    22    27    30    1
    23    30    31    1
    24    31    32    1
    25    32    33    1
    26    33    34    1
    27    27    28    1
    28    28    29    1
    29     4     5   ar
    30     5     6   ar
    31    12    13   am
    32    13    14    2
    33    13    15    1
    34    22    16   ar
    35    15     9    1
    36     6     1   ar
    37    29    24    1
    38    34    30    1
@<TRIPOS>MOLECULE
*****
 34 38 0 0 0
SMALL
GASTEIGER

@<TRIPOS>ATOM
      1 C         140.8302  140.5334  161.7372 C.ar    1  UNL1        0.0541
      2 C         140.5138  141.7750  160.9572 C.ar    1  UNL1        0.0180
      3 C         140.6964  141.7924  159.4685 C.ar    1  UNL1        0.0382
      4 C         141.1954  140.5683  158.7597 C.ar    1  UNL1        0.1385
      5 C         141.5119  139.3267  159.5396 C.ar    1  UNL1        0.0382
      6 C         141.3293  139.3092  161.0283 C.ar    1  UNL1        0.0180
      7 O         139.0414  139.5972  168.3078 O.2     1  UNL1       -0.2699
      8 C         140.0999  140.4636  167.6921 C.2     1  UNL1        0.2494
      9 N         140.2825  140.4810  166.2034 N.am    1  UNL1       -0.2660
     10 C         141.3410  141.3474  165.5877 C.3     1  UNL1        0.1160
     11 C         141.5235  141.3648  164.0989 C.3     1  UNL1        0.1197
     12 N         140.6476  140.5159  163.2259 N.am    1  UNL1       -0.2555
     13 C         139.5891  139.6496  163.8416 C.2     1  UNL1        0.2497
     14 O         138.7133  138.8007  162.9686 O.2     1  UNL1       -0.2727
     15 C         139.4066  139.6321  165.3303 C.3     1  UNL1        0.1799
     16 C         140.9758  141.3125  168.5652 C.ar    1  UNL1        0.0537
     17 C         140.4763  142.6335  169.0705 C.ar    1  UNL1        0.0068
     18 C         141.3522  143.4823  169.9436 C.ar    1  UNL1        0.0298
     19 C         142.7276  143.0101  170.3113 C.ar    1  UNL1        0.1401
     20 F         143.6035  143.8590  171.1844 F       1  UNL1       -0.2042
     21 C         143.2271  141.6891  169.8060 C.ar    1  UNL1        0.0298
     22 C         142.3512  140.8403  168.9330 C.ar    1  UNL1        0.0068
     23 O         141.3780  140.5857  157.2710 O.3     1  UNL1       -0.4791
     24 C         142.6952  140.9951  156.6816 C.3     1  UNL1        0.1687
     25 C         143.9630  140.3507  157.1587 C.3     1  UNL1        0.0609
     26 C         145.2802  140.7600  156.5694 C.3     1  UNL1        0.0758
     27 N         145.3297  141.8137  155.5030 N.3     1  UNL1       -0.2737
     28 C         144.0620  142.4582  155.0259 C.3     1  UNL1        0.0758
     29 C         142.7447  142.0488  155.6152 C.3     1  UNL1        0.0609
     30 C         146.6470  142.2231  154.9137 C.3     1  UNL1        0.0575
     31 C         147.9929  141.6910  155.3083 C.3     1  UNL1        0.0160
     32 C         149.0273  142.3755  154.4647 C.3     1  UNL1        0.0014
     33 C         148.3208  143.3305  153.5488 C.3     1  UNL1        0.0014
     34 C         146.8497  143.2362  153.8263 C.3     1  UNL1        0.0160
@<TRIPOS>BOND
     1     7     8    2
     2     8    16    1
     3    16    17   ar
     4    17    18   ar
     5    18    19   ar
     6    19    20    1
     7    19    21   ar
     8    21    22   ar
     9     8     9   am
    10     9    10    1
    11    10    11    1
    12    11    12    1
    13    12     1    1
    14     1     2   ar
    15     2     3   ar
    16     3     4   ar
    17     4    23    1
    18    23    24    1
    19    24    25    1
    20    25    26    1
    21    26    27    1
    22    27    30    1
    23    30    31    1
    24    31    32    1
    25    32    33    1
    26    33    34    1
    27    27    28    1
    28    28    29    1
    29     4     5   ar
    30     5     6   ar
    31    12    13   am
    32    13    14    2
    33    13    15    1
    34    22    16   ar
    35    15     9    1
    36     6     1   ar
    37    29    24    1
    38    34    30    1
