@<TRIPOS>MOLECULE
*****
 32 36 0 0 0
SMALL
GASTEIGER

@<TRIPOS>ATOM
      1 N         142.7711  138.5135  159.6979 N.am    1  UNL1       -0.2523
      2 C         143.8933  138.5513  160.6927 C.3     1  UNL1        0.0992
      3 C         143.3062  138.3684  162.0609 C.3     1  UNL1        0.0306
      4 C         141.8212  138.2175  161.9118 C.3     1  UNL1        0.0737
      5 C         140.3585  138.0824  161.6080 C.3     1  UNL1        0.0260
      6 C         139.3767  137.8778  162.7234 C.3     1  UNL1        0.0727
      7 N         139.8576  137.8083  164.1425 N.3     1  UNL1       -0.2703
      8 C         141.3202  137.9433  164.4463 C.3     1  UNL1        0.0727
      9 C         142.3020  138.1479  163.3309 C.3     1  UNL1        0.0260
     10 C         141.4905  138.3072  160.4514 C.2     1  UNL1        0.2289
     11 O         140.1199  138.2080  159.8500 O.2     1  UNL1       -0.2745
     12 C         142.8560  137.4141  154.5342 C.3     1  UNL1        0.0528
     13 C         142.9449  138.1515  155.8374 C.ar    1  UNL1        0.0690
     14 C         142.7127  137.5666  157.1990 C.ar    1  UNL1        0.0384
     15 C         142.9059  138.6568  158.2109 C.ar    1  UNL1        0.1031
     16 S         143.2576  139.9155  157.4748 S.2     1  UNL1        0.0278
     17 N         143.2817  139.6032  156.0079 N.ar    1  UNL1       -0.2122
     18 C         138.8756  137.6036  165.2579 C.3     1  UNL1        0.1063
     19 C         138.1571  138.7797  165.8498 C.3     1  UNL1        0.1483
     20 O         137.2972  138.5991  167.0654 O.3     1  UNL1       -0.3786
     21 H         136.9086  139.4518  167.3162 H       1  UNL1        0.2108
     22 C         138.2984  140.1366  165.2259 C.ar    1  UNL1        0.0015
     23 C         137.4578  140.5082  164.0405 C.ar    1  UNL1       -0.0020
     24 C         137.5991  141.8650  163.4166 C.ar    1  UNL1        0.0060
     25 C         138.5810  142.8501  163.9782 C.ar    1  UNL1        0.0748
     26 C         139.4216  142.4784  165.1636 C.ar    1  UNL1        0.0233
     27 C         139.2803  141.1217  165.7875 C.ar    1  UNL1       -0.0238
     28 C         140.1209  140.7500  166.9729 C.3     1  UNL1        0.0306
     29 C         140.2981  143.6495  165.4957 C.3     1  UNL1        0.2352
     30 O         139.9993  144.7449  164.5156 O.3     1  UNL1       -0.4404
     31 C         138.9380  144.2508  163.5777 C.2     1  UNL1        0.3413
     32 O         138.3389  145.0221  162.4392 O.2     1  UNL1       -0.2449
@<TRIPOS>BOND
     1    12    13    1
     2    13    14   ar
     3    14    15   ar
     4    15     1    1
     5     1     2    1
     6     2     3    1
     7     3     4    1
     8     4     5    1
     9     5     6    1
    10     6     7    1
    11     7    18    1
    12    18    19    1
    13    19    20    1
    14    19    22    1
    15    22    23   ar
    16    23    24   ar
    17    24    25   ar
    18    25    26   ar
    19    26    27   ar
    20    27    28    1
    21    26    29    1
    22    29    30    1
    23    30    31    1
    24    31    32    2
    25     7     8    1
    26     8     9    1
    27     4    10    1
    28    10    11    2
    29    15    16   ar
    30    16    17   ar
    31    17    13   ar
    32    10     1   am
    33     9     4    1
    34    27    22   ar
    35    31    25    1
    36    20    21    1
@<TRIPOS>MOLECULE
*****
 32 36 0 0 0
SMALL
GASTEIGER

@<TRIPOS>ATOM
      1 N         140.2423  144.8678  160.2194 N.am    1  UNL1       -0.2523
      2 C         139.9648  145.8366  161.3304 C.3     1  UNL1        0.0992
      3 C         139.5055  145.0534  162.5245 C.3     1  UNL1        0.0306
      4 C         139.4991  143.6005  162.1514 C.3     1  UNL1        0.0737
      5 C         139.5429  142.1924  161.6365 C.3     1  UNL1        0.0260
      6 C         139.1501  141.0542  162.5309 C.3     1  UNL1        0.0727
      7 N         138.7135  141.3241  163.9404 N.3     1  UNL1       -0.2703
      8 C         138.6696  142.7322  164.4553 C.3     1  UNL1        0.0727
      9 C         139.0624  143.8704  163.5608 C.3     1  UNL1        0.0260
     10 C         139.9544  143.4858  160.7268 C.2     1  UNL1        0.2289
     11 O         140.0969  142.2126  159.9465 O.2     1  UNL1       -0.2745
     12 C         140.4482  146.8228  155.3189 C.3     1  UNL1        0.0528
     13 C         140.8178  146.1178  156.5902 C.ar    1  UNL1        0.0690
     14 C         139.9616  146.0048  157.8166 C.ar    1  UNL1        0.0384
     15 C         140.7231  145.2191  158.8427 C.ar    1  UNL1        0.1031
     16 S         142.0499  144.8465  158.2504 S.2     1  UNL1        0.0278
     17 N         142.1084  145.4019  156.8582 N.ar    1  UNL1       -0.2122
     18 C         138.3207  140.1858  164.8349 C.3     1  UNL1        0.1063
     19 C         139.3508  139.5212  165.6992 C.3     1  UNL1        0.1483
     20 O         140.0025  138.2487  165.2456 O.3     1  UNL1       -0.3786
     21 H         140.6388  137.9544  165.9160 H       1  UNL1        0.2108
     22 C         139.7291  140.1292  167.0173 C.ar    1  UNL1        0.0015
     23 C         138.8971  139.8568  168.2353 C.ar    1  UNL1       -0.0020
     24 C         139.2754  140.4647  169.5533 C.ar    1  UNL1        0.0060
     25 C         140.4858  141.3450  169.6534 C.ar    1  UNL1        0.0748
     26 C         141.3179  141.6173  168.4354 C.ar    1  UNL1        0.0233
     27 C         140.9395  141.0094  167.1174 C.ar    1  UNL1       -0.0238
     28 C         141.7716  141.2817  165.8994 C.3     1  UNL1        0.0306
     29 C         142.4474  142.5186  168.8377 C.3     1  UNL1        0.2352
     30 O         142.3134  142.8033  170.3044 O.3     1  UNL1       -0.4404
     31 C         141.1011  142.0780  170.8084 C.2     1  UNL1        0.3413
     32 O         140.5931  142.0845  172.2198 O.2     1  UNL1       -0.2449
@<TRIPOS>BOND
     1    12    13    1
     2    13    14   ar
     3    14    15   ar
     4    15     1    1
     5     1     2    1
     6     2     3    1
     7     3     4    1
     8     4     5    1
     9     5     6    1
    10     6     7    1
    11     7    18    1
    12    18    19    1
    13    19    20    1
    14    19    22    1
    15    22    23   ar
    16    23    24   ar
    17    24    25   ar
    18    25    26   ar
    19    26    27   ar
    20    27    28    1
    21    26    29    1
    22    29    30    1
    23    30    31    1
    24    31    32    2
    25     7     8    1
    26     8     9    1
    27     4    10    1
    28    10    11    2
    29    15    16   ar
    30    16    17   ar
    31    17    13   ar
    32    10     1   am
    33     9     4    1
    34    27    22   ar
    35    31    25    1
    36    20    21    1
@<TRIPOS>MOLECULE
*****
 32 36 0 0 0
SMALL
GASTEIGER

@<TRIPOS>ATOM
      1 N         138.3537  140.3085  159.6199 N.am    1  UNL1       -0.2523
      2 C         138.9295  138.9248  159.5562 C.3     1  UNL1        0.0992
      3 C         139.0574  138.4108  160.9595 C.3     1  UNL1        0.0306
      4 C         138.5605  139.4768  161.8907 C.3     1  UNL1        0.0737
      5 C         138.0355  140.6295  162.6941 C.3     1  UNL1        0.0260
      6 C         137.9828  140.5386  164.1903 C.3     1  UNL1        0.0727
      7 N         138.4552  139.2950  164.8833 N.3     1  UNL1       -0.2703
      8 C         138.9802  138.1422  164.0799 C.3     1  UNL1        0.0727
      9 C         139.0329  138.2331  162.5836 C.3     1  UNL1        0.0260
     10 C         138.1256  140.6496  161.0628 C.2     1  UNL1        0.2289
     11 O         137.5617  141.9374  161.5858 O.2     1  UNL1       -0.2745
     12 C         136.3006  142.1754  155.1278 C.3     1  UNL1        0.0528
     13 C         137.1142  142.0534  156.3821 C.ar    1  UNL1        0.0690
     14 C         137.0937  140.8970  157.3372 C.ar    1  UNL1        0.0384
     15 C         138.0578  141.1952  158.4469 C.ar    1  UNL1        0.1031
     16 S         138.6742  142.5359  158.1776 S.2     1  UNL1        0.0278
     17 N         138.0910  143.0663  156.9014 N.ar    1  UNL1       -0.2122
     18 C         138.4025  139.2041  166.3796 C.3     1  UNL1        0.1063
     19 C         139.5567  139.6955  167.2020 C.3     1  UNL1        0.1483
     20 O         139.4316  139.7813  168.6943 O.3     1  UNL1       -0.3786
     21 H         140.2613  140.1155  169.0696 H       1  UNL1        0.2108
     22 C         140.8361  140.1011  166.5320 C.ar    1  UNL1        0.0015
     23 C         141.8821  139.0704  166.2263 C.ar    1  UNL1       -0.0020
     24 C         143.1614  139.4759  165.5564 C.ar    1  UNL1        0.0060
     25 C         143.3947  140.9122  165.1921 C.ar    1  UNL1        0.0748
     26 C         142.3486  141.9429  165.4978 C.ar    1  UNL1        0.0233
     27 C         141.0693  141.5373  166.1677 C.ar    1  UNL1       -0.0238
     28 C         140.0233  142.5680  166.4734 C.3     1  UNL1        0.0306
     29 C         142.8560  143.2727  165.0244 C.3     1  UNL1        0.2352
     30 O         144.2155  143.0639  164.4261 O.3     1  UNL1       -0.4404
     31 C         144.5485  141.6050  164.5298 C.2     1  UNL1        0.3413
     32 O         145.8132  140.9534  164.0545 O.2     1  UNL1       -0.2449
@<TRIPOS>BOND
     1    12    13    1
     2    13    14   ar
     3    14    15   ar
     4    15     1    1
     5     1     2    1
     6     2     3    1
     7     3     4    1
     8     4     5    1
     9     5     6    1
    10     6     7    1
    11     7    18    1
    12    18    19    1
    13    19    20    1
    14    19    22    1
    15    22    23   ar
    16    23    24   ar
    17    24    25   ar
    18    25    26   ar
    19    26    27   ar
    20    27    28    1
    21    26    29    1
    22    29    30    1
    23    30    31    1
    24    31    32    2
    25     7     8    1
    26     8     9    1
    27     4    10    1
    28    10    11    2
    29    15    16   ar
    30    16    17   ar
    31    17    13   ar
    32    10     1   am
    33     9     4    1
    34    27    22   ar
    35    31    25    1
    36    20    21    1
@<TRIPOS>MOLECULE
*****
 32 36 0 0 0
SMALL
GASTEIGER

@<TRIPOS>ATOM
      1 N         140.9020  139.9795  167.3116 N.am    1  UNL1       -0.2523
      2 C         139.4137  139.8932  167.4783 C.3     1  UNL1        0.0992
      3 C         138.8235  139.4761  166.1639 C.3     1  UNL1        0.0306
      4 C         139.9470  139.3045  165.1848 C.3     1  UNL1        0.0737
      5 C         141.1672  139.1739  164.3224 C.3     1  UNL1        0.0260
      6 C         141.0302  138.7633  162.8863 C.3     1  UNL1        0.0727
      7 N         139.6728  138.4833  162.3125 N.3     1  UNL1       -0.2703
      8 C         138.4525  138.6139  163.1749 C.3     1  UNL1        0.0727
      9 C         138.5896  139.0245  164.6111 C.3     1  UNL1        0.0260
     10 C         141.2315  139.6156  165.8941 C.2     1  UNL1        0.2289
     11 O         142.6045  139.5708  165.2918 O.2     1  UNL1       -0.2745
     12 C         144.4183  142.7086  170.1518 C.3     1  UNL1        0.0528
     13 C         143.5039  141.6168  169.6810 C.ar    1  UNL1        0.0690
     14 C         142.6281  141.6638  168.4642 C.ar    1  UNL1        0.0384
     15 C         141.8876  140.3624  168.3755 C.ar    1  UNL1        0.1031
     16 S         142.3058  139.5110  169.5375 S.2     1  UNL1        0.0278
     17 N         143.3047  140.2863  170.3444 N.ar    1  UNL1       -0.2122
     18 C         139.5358  138.0727  160.8763 C.3     1  UNL1        0.1063
     19 C         139.4297  139.1168  159.8046 C.3     1  UNL1        0.1483
     20 O         139.2012  138.7083  158.3795 O.3     1  UNL1       -0.3786
     21 H         139.1577  139.4991  157.8194 H       1  UNL1        0.2108
     22 C         139.5522  140.5694  160.1579 C.ar    1  UNL1        0.0015
     23 C         138.3475  141.3321  160.6238 C.ar    1  UNL1       -0.0020
     24 C         138.4699  142.7847  160.9771 C.ar    1  UNL1        0.0060
     25 C         139.7970  143.4747  160.8647 C.ar    1  UNL1        0.0748
     26 C         141.0017  142.7120  160.3988 C.ar    1  UNL1        0.0233
     27 C         140.8793  141.2594  160.0455 C.ar    1  UNL1       -0.0238
     28 C         142.0840  140.4967  159.5796 C.3     1  UNL1        0.0306
     29 C         142.1699  143.6528  160.3872 C.3     1  UNL1        0.2352
     30 O         141.6872  144.9969  160.8458 O.3     1  UNL1       -0.4404
     31 C         140.2207  144.8868  161.1409 C.2     1  UNL1        0.3413
     32 O         139.3335  145.9944  161.6269 O.2     1  UNL1       -0.2449
@<TRIPOS>BOND
     1    12    13    1
     2    13    14   ar
     3    14    15   ar
     4    15     1    1
     5     1     2    1
     6     2     3    1
     7     3     4    1
     8     4     5    1
     9     5     6    1
    10     6     7    1
    11     7    18    1
    12    18    19    1
    13    19    20    1
    14    19    22    1
    15    22    23   ar
    16    23    24   ar
    17    24    25   ar
    18    25    26   ar
    19    26    27   ar
    20    27    28    1
    21    26    29    1
    22    29    30    1
    23    30    31    1
    24    31    32    2
    25     7     8    1
    26     8     9    1
    27     4    10    1
    28    10    11    2
    29    15    16   ar
    30    16    17   ar
    31    17    13   ar
    32    10     1   am
    33     9     4    1
    34    27    22   ar
    35    31    25    1
    36    20    21    1
@<TRIPOS>MOLECULE
*****
 32 36 0 0 0
SMALL
GASTEIGER

@<TRIPOS>ATOM
      1 N         142.9474  138.3545  159.3280 N.am    1  UNL1       -0.2523
      2 C         142.9313  137.3673  160.4574 C.3     1  UNL1        0.0992
      3 C         143.4543  138.0563  161.6828 C.3     1  UNL1        0.0306
      4 C         143.7937  139.4694  161.3109 C.3     1  UNL1        0.0737
      5 C         144.0853  140.8468  160.7938 C.3     1  UNL1        0.0260
      6 C         144.6405  141.8920  161.7153 C.3     1  UNL1        0.0727
      7 N         144.9041  141.5596  163.1541 N.3     1  UNL1       -0.2703
      8 C         144.6126  140.1822  163.6713 C.3     1  UNL1        0.0727
      9 C         144.0574  139.1370  162.7497 C.3     1  UNL1        0.0260
     10 C         143.4805  139.6537  159.8556 C.2     1  UNL1        0.2289
     11 O         143.6674  140.9155  159.0664 O.2     1  UNL1       -0.2745
     12 C         142.4617  136.1679  154.5466 C.3     1  UNL1        0.0528
     13 C         142.2845  137.0841  155.7209 C.ar    1  UNL1        0.0690
     14 C         142.9828  136.9676  157.0433 C.ar    1  UNL1        0.0384
     15 C         142.5077  138.0892  157.9187 C.ar    1  UNL1        0.1031
     16 S         141.5159  138.8989  157.1374 S.2     1  UNL1        0.0278
     17 N         141.3779  138.2777  155.7790 N.ar    1  UNL1       -0.2122
     18 C         145.4594  142.6049  164.0757 C.3     1  UNL1        0.1063
     19 C         144.5359  143.4033  164.9472 C.3     1  UNL1        0.1483
     20 O         145.0374  143.9869  166.2349 O.3     1  UNL1       -0.3786
     21 H         144.3188  144.4694  166.6727 H       1  UNL1        0.2108
     22 C         143.1108  143.6183  164.5312 C.ar    1  UNL1        0.0015
     23 C         142.7816  144.6386  163.4821 C.ar    1  UNL1       -0.0020
     24 C         141.3566  144.8536  163.0660 C.ar    1  UNL1        0.0060
     25 C         140.2609  144.0482  163.6990 C.ar    1  UNL1        0.0748
     26 C         140.5901  143.0279  164.7480 C.ar    1  UNL1        0.0233
     27 C         142.0151  142.8129  165.1641 C.ar    1  UNL1       -0.0238
     28 C         142.3443  141.7926  166.2132 C.3     1  UNL1        0.0306
     29 C         139.3077  142.3884  165.1913 C.3     1  UNL1        0.2352
     30 O         138.1859  143.0134  164.4162 O.3     1  UNL1       -0.4404
     31 C         138.7750  144.0393  163.4939 C.2     1  UNL1        0.3413
     32 O         138.0121  144.9044  162.5349 O.2     1  UNL1       -0.2449
@<TRIPOS>BOND
     1    12    13    1
     2    13    14   ar
     3    14    15   ar
     4    15     1    1
     5     1     2    1
     6     2     3    1
     7     3     4    1
     8     4     5    1
     9     5     6    1
    10     6     7    1
    11     7    18    1
    12    18    19    1
    13    19    20    1
    14    19    22    1
    15    22    23   ar
    16    23    24   ar
    17    24    25   ar
    18    25    26   ar
    19    26    27   ar
    20    27    28    1
    21    26    29    1
    22    29    30    1
    23    30    31    1
    24    31    32    2
    25     7     8    1
    26     8     9    1
    27     4    10    1
    28    10    11    2
    29    15    16   ar
    30    16    17   ar
    31    17    13   ar
    32    10     1   am
    33     9     4    1
    34    27    22   ar
    35    31    25    1
    36    20    21    1
@<TRIPOS>MOLECULE
*****
 32 36 0 0 0
SMALL
GASTEIGER

@<TRIPOS>ATOM
      1 N         139.8805  140.0499  167.0040 N.am    1  UNL1       -0.2523
      2 C         138.7733  139.1172  166.6111 C.3     1  UNL1        0.0992
      3 C         139.1738  138.4324  165.3381 C.3     1  UNL1        0.0306
      4 C         140.5286  138.9418  164.9441 C.3     1  UNL1        0.0737
      5 C         141.8779  139.5409  164.6789 C.3     1  UNL1        0.0260
      6 C         142.6587  139.1239  163.4680 C.3     1  UNL1        0.0727
      7 N         142.0903  138.1077  162.5223 N.3     1  UNL1       -0.2703
      8 C         140.7410  137.5085  162.7876 C.3     1  UNL1        0.0727
      9 C         139.9602  137.9256  163.9985 C.3     1  UNL1        0.0260
     10 C         140.9653  139.9414  165.9737 C.2     1  UNL1        0.2289
     11 O         142.2596  140.6996  165.9731 O.2     1  UNL1       -0.2745
     12 C         140.5391  144.2364  170.1534 C.3     1  UNL1        0.0528
     13 C         140.2023  142.8598  169.6621 C.ar    1  UNL1        0.0690
     14 C         140.3531  142.3646  168.2543 C.ar    1  UNL1        0.0384
     15 C         139.8995  140.9355  168.2145 C.ar    1  UNL1        0.1031
     16 S         139.4683  140.5473  169.5977 S.2     1  UNL1        0.0278
     17 N         139.6554  141.7366  170.4924 N.ar    1  UNL1       -0.2122
     18 C         142.8712  137.6906  161.3114 C.3     1  UNL1        0.1063
     19 C         142.6623  138.3965  160.0045 C.3     1  UNL1        0.1483
     20 O         143.1710  137.7857  158.7324 O.3     1  UNL1       -0.3786
     21 H         142.9545  138.3660  157.9859 H       1  UNL1        0.2108
     22 C         141.9445  139.7132  159.9696 C.ar    1  UNL1        0.0015
     23 C         142.6919  140.9825  160.2533 C.ar    1  UNL1       -0.0020
     24 C         141.9742  142.2992  160.2184 C.ar    1  UNL1        0.0060
     25 C         140.5092  142.3466  159.8998 C.ar    1  UNL1        0.0748
     26 C         139.7619  141.0773  159.6161 C.ar    1  UNL1        0.0233
     27 C         140.4796  139.7607  159.6510 C.ar    1  UNL1       -0.0238
     28 C         139.7322  138.4914  159.3673 C.3     1  UNL1        0.0306
     29 C         138.3325  141.4342  159.3343 C.3     1  UNL1        0.2352
     30 O         138.1963  142.9240  159.4439 O.3     1  UNL1       -0.4404
     31 C         139.5417  143.4879  159.7933 C.2     1  UNL1        0.3413
     32 O         139.8630  144.9384  160.0001 O.2     1  UNL1       -0.2449
@<TRIPOS>BOND
     1    12    13    1
     2    13    14   ar
     3    14    15   ar
     4    15     1    1
     5     1     2    1
     6     2     3    1
     7     3     4    1
     8     4     5    1
     9     5     6    1
    10     6     7    1
    11     7    18    1
    12    18    19    1
    13    19    20    1
    14    19    22    1
    15    22    23   ar
    16    23    24   ar
    17    24    25   ar
    18    25    26   ar
    19    26    27   ar
    20    27    28    1
    21    26    29    1
    22    29    30    1
    23    30    31    1
    24    31    32    2
    25     7     8    1
    26     8     9    1
    27     4    10    1
    28    10    11    2
    29    15    16   ar
    30    16    17   ar
    31    17    13   ar
    32    10     1   am
    33     9     4    1
    34    27    22   ar
    35    31    25    1
    36    20    21    1
@<TRIPOS>MOLECULE
*****
 32 36 0 0 0
SMALL
GASTEIGER

@<TRIPOS>ATOM
      1 N         140.9875  138.5582  158.9849 N.am    1  UNL1       -0.2523
      2 C         139.6474  139.1765  158.7166 C.3     1  UNL1        0.0992
      3 C         138.9109  139.2705  160.0200 C.3     1  UNL1        0.0306
      4 C         139.7958  138.7102  161.0939 C.3     1  UNL1        0.0737
      5 C         140.7869  138.1237  162.0550 C.3     1  UNL1        0.0260
      6 C         140.4479  138.0216  163.5126 C.3     1  UNL1        0.0727
      7 N         139.1179  138.5061  164.0091 N.3     1  UNL1       -0.2703
      8 C         138.1269  139.0926  163.0479 C.3     1  UNL1        0.0727
      9 C         138.4659  139.1947  161.5903 C.3     1  UNL1        0.0260
     10 C         141.0792  138.2700  160.4541 C.2     1  UNL1        0.2289
     11 O         142.2489  137.6504  161.1597 O.2     1  UNL1       -0.2745
     12 C         144.0312  136.0720  155.4586 C.3     1  UNL1        0.0528
     13 C         143.4484  137.1346  156.3425 C.ar    1  UNL1        0.0690
     14 C         142.2933  136.9625  157.2838 C.ar    1  UNL1        0.0384
     15 C         142.0493  138.2773  157.9633 C.ar    1  UNL1        0.1031
     16 S         143.0536  139.2620  157.4420 S.2     1  UNL1        0.0278
     17 N         143.9183  138.5557  156.4402 N.ar    1  UNL1       -0.2122
     18 C         138.7790  138.4040  165.4667 C.3     1  UNL1        0.1063
     19 C         139.1901  139.4949  166.4105 C.3     1  UNL1        0.1483
     20 O         138.8679  139.3838  167.8713 O.3     1  UNL1       -0.3786
     21 H         139.2013  140.1670  168.3364 H       1  UNL1        0.2108
     22 C         139.9234  140.6970  165.8936 C.ar    1  UNL1        0.0015
     23 C         139.1588  141.8500  165.3139 C.ar    1  UNL1       -0.0020
     24 C         139.8920  143.0521  164.7970 C.ar    1  UNL1        0.0060
     25 C         141.3899  143.1012  164.8597 C.ar    1  UNL1        0.0748
     26 C         142.1545  141.9483  165.4394 C.ar    1  UNL1        0.0233
     27 C         141.4212  140.7462  165.9563 C.ar    1  UNL1       -0.0238
     28 C         142.1859  139.5932  166.5360 C.3     1  UNL1        0.0306
     29 C         143.6159  142.2791  165.3691 C.3     1  UNL1        0.2352
     30 O         143.7545  143.6365  164.7460 O.3     1  UNL1       -0.4404
     31 C         142.3787  144.1446  164.4312 C.2     1  UNL1        0.3413
     32 O         142.0496  145.4643  163.7988 O.2     1  UNL1       -0.2449
@<TRIPOS>BOND
     1    12    13    1
     2    13    14   ar
     3    14    15   ar
     4    15     1    1
     5     1     2    1
     6     2     3    1
     7     3     4    1
     8     4     5    1
     9     5     6    1
    10     6     7    1
    11     7    18    1
    12    18    19    1
    13    19    20    1
    14    19    22    1
    15    22    23   ar
    16    23    24   ar
    17    24    25   ar
    18    25    26   ar
    19    26    27   ar
    20    27    28    1
    21    26    29    1
    22    29    30    1
    23    30    31    1
    24    31    32    2
    25     7     8    1
    26     8     9    1
    27     4    10    1
    28    10    11    2
    29    15    16   ar
    30    16    17   ar
    31    17    13   ar
    32    10     1   am
    33     9     4    1
    34    27    22   ar
    35    31    25    1
    36    20    21    1
@<TRIPOS>MOLECULE
*****
 32 36 0 0 0
SMALL
GASTEIGER

@<TRIPOS>ATOM
      1 N         142.2101  139.5365  167.0587 N.am    1  UNL1       -0.2523
      2 C         143.1737  138.6760  166.2964 C.3     1  UNL1        0.0992
      3 C         142.4938  138.2199  165.0396 C.3     1  UNL1        0.0306
      4 C         141.1098  138.7984  165.0251 C.3     1  UNL1        0.0737
      5 C         139.7613  139.4436  165.1483 C.3     1  UNL1        0.0260
      6 C         138.7333  139.2435  164.0745 C.3     1  UNL1        0.0727
      7 N         139.0538  138.3983  162.8774 N.3     1  UNL1       -0.2703
      8 C         140.4023  137.7532  162.7542 C.3     1  UNL1        0.0727
      9 C         141.4303  137.9532  163.8280 C.3     1  UNL1        0.0260
     10 C         140.9345  139.6122  166.2729 C.2     1  UNL1        0.2289
     11 O         139.7004  140.3687  166.6660 O.2     1  UNL1       -0.2745
     12 C         143.3336  143.1920  170.6994 C.3     1  UNL1        0.0528
     13 C         142.9918  141.8843  170.0489 C.ar    1  UNL1        0.0690
     14 C         142.8064  141.6529  168.5785 C.ar    1  UNL1        0.0384
     15 C         142.4754  140.2041  168.3755 C.ar    1  UNL1        0.1031
     16 S         142.4563  139.5400  169.7203 S.2     1  UNL1        0.0278
     17 N         142.7755  140.5785  170.7546 N.ar    1  UNL1       -0.2122
     18 C         138.0257  138.1983  161.8036 C.3     1  UNL1        0.1063
     19 C         137.6561  139.3354  160.8979 C.3     1  UNL1        0.1483
     20 O         136.3010  139.3729  160.2558 O.3     1  UNL1       -0.3786
     21 H         136.2257  140.1684  159.7058 H       1  UNL1        0.2108
     22 C         138.6416  140.4352  160.6344 C.ar    1  UNL1        0.0015
     23 C         139.6950  140.2616  159.5806 C.ar    1  UNL1       -0.0020
     24 C         140.6805  141.3613  159.3170 C.ar    1  UNL1        0.0060
     25 C         140.6127  142.6344  160.1071 C.ar    1  UNL1        0.0748
     26 C         139.5593  142.8080  161.1609 C.ar    1  UNL1        0.0233
     27 C         138.5738  141.7083  161.4245 C.ar    1  UNL1       -0.0238
     28 C         137.5205  141.8819  162.4783 C.3     1  UNL1        0.0306
     29 C         139.7378  144.1645  161.7757 C.3     1  UNL1        0.2352
     30 O         140.9014  144.8294  161.1019 O.3     1  UNL1       -0.4404
     31 C         141.4421  143.8837  160.0707 C.2     1  UNL1        0.3413
     32 O         142.6076  144.1420  159.1624 O.2     1  UNL1       -0.2449
@<TRIPOS>BOND
     1    12    13    1
     2    13    14   ar
     3    14    15   ar
     4    15     1    1
     5     1     2    1
     6     2     3    1
     7     3     4    1
     8     4     5    1
     9     5     6    1
    10     6     7    1
    11     7    18    1
    12    18    19    1
    13    19    20    1
    14    19    22    1
    15    22    23   ar
    16    23    24   ar
    17    24    25   ar
    18    25    26   ar
    19    26    27   ar
    20    27    28    1
    21    26    29    1
    22    29    30    1
    23    30    31    1
    24    31    32    2
    25     7     8    1
    26     8     9    1
    27     4    10    1
    28    10    11    2
    29    15    16   ar
    30    16    17   ar
    31    17    13   ar
    32    10     1   am
    33     9     4    1
    34    27    22   ar
    35    31    25    1
    36    20    21    1
@<TRIPOS>MOLECULE
*****
 32 36 0 0 0
SMALL
GASTEIGER

@<TRIPOS>ATOM
      1 N         141.9666  139.5123  167.0759 N.am    1  UNL1       -0.2523
      2 C         142.8793  138.5588  166.3631 C.3     1  UNL1        0.0992
      3 C         142.1942  138.1143  165.1050 C.3     1  UNL1        0.0306
      4 C         140.8580  138.7931  165.0400 C.3     1  UNL1        0.0737
      5 C         139.5593  139.5401  165.1116 C.3     1  UNL1        0.0260
      6 C         138.5424  139.3826  164.0202 C.3     1  UNL1        0.0727
      7 N         138.8243  138.4781  162.8573 N.3     1  UNL1       -0.2703
      8 C         140.1231  137.7311  162.7857 C.3     1  UNL1        0.0727
      9 C         141.1399  137.8886  163.8771 C.3     1  UNL1        0.0260
     10 C         140.7174  139.6571  166.2581 C.2     1  UNL1        0.2289
     11 O         139.5353  140.5153  166.5987 O.2     1  UNL1       -0.2745
     12 C         142.9992  143.2496  170.6601 C.3     1  UNL1        0.0528
     13 C         142.7275  141.9180  170.0252 C.ar    1  UNL1        0.0690
     14 C         142.4764  141.6713  168.5671 C.ar    1  UNL1        0.0384
     15 C         142.2529  140.2002  168.3778 C.ar    1  UNL1        0.1031
     16 S         142.3659  139.5377  169.7187 S.2     1  UNL1        0.0278
     17 N         142.6593  140.5994  170.7370 N.ar    1  UNL1       -0.2122
     18 C         137.8074  138.3206  161.7659 C.3     1  UNL1        0.1063
     19 C         137.5054  139.4699  160.8505 C.3     1  UNL1        0.1483
     20 O         136.1572  139.5781  160.2021 O.3     1  UNL1       -0.3786
     21 H         136.1286  140.3724  159.6461 H       1  UNL1        0.2108
     22 C         138.5518  140.5111  160.5836 C.ar    1  UNL1        0.0015
     23 C         138.4224  141.8770  161.1899 C.ar    1  UNL1       -0.0020
     24 C         139.4687  142.9181  160.9230 C.ar    1  UNL1        0.0060
     25 C         140.6443  142.5934  160.0499 C.ar    1  UNL1        0.0748
     26 C         140.7737  141.2275  159.4436 C.ar    1  UNL1        0.0233
     27 C         139.7274  140.1863  159.7105 C.ar    1  UNL1       -0.0238
     28 C         139.8568  138.8204  159.1043 C.3     1  UNL1        0.0306
     29 C         142.0337  141.1988  158.6303 C.3     1  UNL1        0.2352
     30 O         142.6831  142.5469  158.7339 O.3     1  UNL1       -0.4404
     31 C         141.8244  143.4088  159.6112 C.2     1  UNL1        0.3413
     32 O         142.0978  144.8357  159.9844 O.2     1  UNL1       -0.2449
@<TRIPOS>BOND
     1    12    13    1
     2    13    14   ar
     3    14    15   ar
     4    15     1    1
     5     1     2    1
     6     2     3    1
     7     3     4    1
     8     4     5    1
     9     5     6    1
    10     6     7    1
    11     7    18    1
    12    18    19    1
    13    19    20    1
    14    19    22    1
    15    22    23   ar
    16    23    24   ar
    17    24    25   ar
    18    25    26   ar
    19    26    27   ar
    20    27    28    1
    21    26    29    1
    22    29    30    1
    23    30    31    1
    24    31    32    2
    25     7     8    1
    26     8     9    1
    27     4    10    1
    28    10    11    2
    29    15    16   ar
    30    16    17   ar
    31    17    13   ar
    32    10     1   am
    33     9     4    1
    34    27    22   ar
    35    31    25    1
    36    20    21    1
