@<TRIPOS>MOLECULE
*****
 20 21 0 0 0
SMALL
GASTEIGER

@<TRIPOS>ATOM
      1 C         138.8522  139.5399  166.9613 C.3     1  UNL1        0.1561
      2 O         137.8717  138.7519  167.7783 O.3     1  UNL1       -0.3780
      3 H         137.1199  138.4949  167.2218 H       1  UNL1        0.2109
      4 C         138.5749  139.8101  165.5121 C.ar    1  UNL1        0.0176
      5 C         138.1768  141.1865  165.0686 C.ar    1  UNL1       -0.0010
      6 C         137.8995  141.4566  163.6194 C.ar    1  UNL1        0.0007
      7 C         138.0202  140.3503  162.6138 C.ar    1  UNL1        0.0122
      8 C         138.4184  138.9738  163.0573 C.ar    1  UNL1        0.0680
      9 CL        138.5391  137.8674  162.0516 Cl      1  UNL1       -0.0814
     10 C         138.6957  138.7037  164.5064 C.ar    1  UNL1        0.0665
     11 CL        139.0938  137.3271  164.9500 Cl      1  UNL1       -0.0816
     12 C         140.1101  140.0577  167.5934 C.3     1  UNL1        0.1424
     13 N         138.6887  139.8642  170.5245 N.pl3   1  UNL1       -0.3288
     14 C         139.3867  141.0663  169.9608 C.ar    1  UNL1        0.1948
     15 N         139.5539  142.3905  170.6454 N.ar    1  UNL1       -0.2123
     16 C         140.3106  143.2978  169.7212 C.ar    1  UNL1        0.1205
     17 C         140.6111  142.5344  168.4653 C.ar    1  UNL1        0.0990
     18 N         140.0400  141.1553  168.6135 N.ar    1  UNL1       -0.2958
     19 H         138.2889  139.9036  171.4233 H       1  UNL1        0.1451
     20 H         138.6304  139.0359  169.9957 H       1  UNL1        0.1451
@<TRIPOS>BOND
     1    13    14    1
     2    14    15   ar
     3    15    16   ar
     4    16    17   ar
     5    17    18   ar
     6    18    12    1
     7    12     1    1
     8     1     2    1
     9     1     4    1
    10     4     5   ar
    11     5     6   ar
    12     6     7   ar
    13     7     8   ar
    14     8     9    1
    15     8    10   ar
    16    10    11    1
    17    18    14   ar
    18    10     4   ar
    19    13    19    1
    20    13    20    1
    21     2     3    1
@<TRIPOS>MOLECULE
*****
 20 21 0 0 0
SMALL
GASTEIGER

@<TRIPOS>ATOM
      1 C         142.5534  139.8156  168.1606 C.3     1  UNL1        0.1561
      2 O         142.9642  138.7837  169.1688 O.3     1  UNL1       -0.3780
      3 H         142.8960  137.9005  168.7736 H       1  UNL1        0.2109
      4 C         142.1252  139.3929  166.7866 C.ar    1  UNL1        0.0176
      5 C         143.1525  138.9788  165.7751 C.ar    1  UNL1       -0.0010
      6 C         142.7242  138.5561  164.4011 C.ar    1  UNL1        0.0007
      7 C         141.2687  138.5475  164.0386 C.ar    1  UNL1        0.0122
      8 C         140.2414  138.9616  165.0501 C.ar    1  UNL1        0.0680
      9 CL        138.7859  138.9531  164.6875 Cl      1  UNL1       -0.0814
     10 C         140.6697  139.3843  166.4240 C.ar    1  UNL1        0.0665
     11 CL        139.6424  139.7985  167.4356 Cl      1  UNL1       -0.0816
     12 C         142.5707  141.2702  168.5265 C.3     1  UNL1        0.1424
     13 N         142.5925  140.4722  171.6907 N.pl3   1  UNL1       -0.3288
     14 C         141.6417  141.4246  171.0282 C.ar    1  UNL1        0.1948
     15 N         140.5341  142.1774  171.7037 N.ar    1  UNL1       -0.2123
     16 C         139.8395  143.0096  170.6668 C.ar    1  UNL1        0.1205
     17 C         140.5179  142.7710  169.3504 C.ar    1  UNL1        0.0990
     18 N         141.6317  141.7914  169.5738 N.ar    1  UNL1       -0.2958
     19 H         142.5189  140.2952  172.6563 H       1  UNL1        0.1451
     20 H         143.2900  140.0240  171.1598 H       1  UNL1        0.1451
@<TRIPOS>BOND
     1    13    14    1
     2    14    15   ar
     3    15    16   ar
     4    16    17   ar
     5    17    18   ar
     6    18    12    1
     7    12     1    1
     8     1     2    1
     9     1     4    1
    10     4     5   ar
    11     5     6   ar
    12     6     7   ar
    13     7     8   ar
    14     8     9    1
    15     8    10   ar
    16    10    11    1
    17    18    14   ar
    18    10     4   ar
    19    13    19    1
    20    13    20    1
    21     2     3    1
@<TRIPOS>MOLECULE
*****
 20 21 0 0 0
SMALL
GASTEIGER

@<TRIPOS>ATOM
      1 C         141.7153  140.8544  167.0463 C.3     1  UNL1        0.1561
      2 O         142.2146  142.0231  166.2495 O.3     1  UNL1       -0.3780
      3 H         141.8579  141.9763  165.3486 H       1  UNL1        0.2109
      4 C         140.8061  139.8458  166.4090 C.ar    1  UNL1        0.0176
      5 C         139.3390  139.8555  166.7215 C.ar    1  UNL1       -0.0010
      6 C         138.4299  138.8469  166.0843 C.ar    1  UNL1        0.0007
      7 C         138.9877  137.8286  165.1346 C.ar    1  UNL1        0.0122
      8 C         140.4547  137.8189  164.8221 C.ar    1  UNL1        0.0680
      9 CL        141.0126  136.8007  163.8724 Cl      1  UNL1       -0.0814
     10 C         141.3639  138.8275  165.4593 C.ar    1  UNL1        0.0665
     11 CL        142.8310  138.8179  165.1469 Cl      1  UNL1       -0.0816
     12 C         142.1252  140.6943  168.4802 C.3     1  UNL1        0.1424
     13 N         142.6205  140.3914  171.6915 N.pl3   1  UNL1       -0.3288
     14 C         141.6007  141.2749  171.0362 C.ar    1  UNL1        0.1948
     15 N         140.6296  142.1743  171.7419 N.ar    1  UNL1       -0.2123
     16 C         139.8017  142.8695  170.7019 C.ar    1  UNL1        0.1205
     17 C         140.2613  142.3996  169.3535 C.ar    1  UNL1        0.0990
     18 N         141.3731  141.4142  169.5602 N.ar    1  UNL1       -0.2958
     19 H         142.6940  140.3685  172.6730 H       1  UNL1        0.1451
     20 H         143.2163  139.8344  171.1401 H       1  UNL1        0.1451
@<TRIPOS>BOND
     1    13    14    1
     2    14    15   ar
     3    15    16   ar
     4    16    17   ar
     5    17    18   ar
     6    18    12    1
     7    12     1    1
     8     1     2    1
     9     1     4    1
    10     4     5   ar
    11     5     6   ar
    12     6     7   ar
    13     7     8   ar
    14     8     9    1
    15     8    10   ar
    16    10    11    1
    17    18    14   ar
    18    10     4   ar
    19    13    19    1
    20    13    20    1
    21     2     3    1
@<TRIPOS>MOLECULE
*****
 20 21 0 0 0
SMALL
GASTEIGER

@<TRIPOS>ATOM
      1 C         138.9623  139.3523  166.9941 C.3     1  UNL1        0.1561
      2 O         137.8720  138.9606  167.9469 O.3     1  UNL1       -0.3780
      3 H         137.1413  138.5561  167.4536 H       1  UNL1        0.2109
      4 C         138.8032  139.0937  165.5251 C.ar    1  UNL1        0.0176
      5 C         139.0347  137.7169  164.9765 C.ar    1  UNL1       -0.0010
      6 C         138.8756  137.4584  163.5076 C.ar    1  UNL1        0.0007
      7 C         138.4850  138.5765  162.5872 C.ar    1  UNL1        0.0122
      8 C         138.2535  139.9533  163.1357 C.ar    1  UNL1        0.0680
      9 CL        137.8629  141.0714  162.2153 Cl      1  UNL1       -0.0814
     10 C         138.4126  140.2119  164.6047 C.ar    1  UNL1        0.0665
     11 CL        138.1811  141.5887  165.1533 Cl      1  UNL1       -0.0816
     12 C         140.2115  140.0027  167.5101 C.3     1  UNL1        0.1424
     13 N         139.0260  139.7937  170.5433 N.pl3   1  UNL1       -0.3288
     14 C         139.5734  141.0300  169.8940 C.ar    1  UNL1        0.1948
     15 N         139.6721  142.3874  170.5248 N.ar    1  UNL1       -0.2123
     16 C         140.2781  143.3224  169.5204 C.ar    1  UNL1        0.1205
     17 C         140.5539  142.5428  168.2688 C.ar    1  UNL1        0.0990
     18 N         140.1184  141.1261  168.4998 N.ar    1  UNL1       -0.2958
     19 H         138.6895  139.8310  171.4678 H       1  UNL1        0.1451
     20 H         139.0031  138.9449  170.0450 H       1  UNL1        0.1451
@<TRIPOS>BOND
     1    13    14    1
     2    14    15   ar
     3    15    16   ar
     4    16    17   ar
     5    17    18   ar
     6    18    12    1
     7    12     1    1
     8     1     2    1
     9     1     4    1
    10     4     5   ar
    11     5     6   ar
    12     6     7   ar
    13     7     8   ar
    14     8     9    1
    15     8    10   ar
    16    10    11    1
    17    18    14   ar
    18    10     4   ar
    19    13    19    1
    20    13    20    1
    21     2     3    1
@<TRIPOS>MOLECULE
*****
 20 21 0 0 0
SMALL
GASTEIGER

@<TRIPOS>ATOM
      1 C         138.0550  140.8940  163.5213 C.3     1  UNL1        0.1561
      2 O         136.6655  141.4102  163.2914 O.3     1  UNL1       -0.3780
      3 H         136.2242  141.5421  164.1451 H       1  UNL1        0.2109
      4 C         138.5484  140.6653  164.9193 C.ar    1  UNL1        0.0176
      5 C         138.1490  139.4248  165.6620 C.ar    1  UNL1       -0.0010
      6 C         138.6423  139.1961  167.0600 C.ar    1  UNL1        0.0007
      7 C         139.5351  140.2078  167.7152 C.ar    1  UNL1        0.0122
      8 C         139.9345  141.4483  166.9725 C.ar    1  UNL1        0.0680
      9 CL        140.8273  142.4601  167.6277 Cl      1  UNL1       -0.0814
     10 C         139.4411  141.6770  165.5746 C.ar    1  UNL1        0.0665
     11 CL        139.8405  142.9176  164.8318 Cl      1  UNL1       -0.0816
     12 C         138.9511  140.6066  162.3533 C.3     1  UNL1        0.1424
     13 N         138.2454  137.4280  162.1356 N.pl3   1  UNL1       -0.3288
     14 C         139.6121  138.0167  162.3238 C.ar    1  UNL1        0.1948
     15 N         140.8943  137.2479  162.4449 N.ar    1  UNL1       -0.2123
     16 C         142.0112  138.2338  162.6199 C.ar    1  UNL1        0.1205
     17 C         141.4192  139.6120  162.6069 C.ar    1  UNL1        0.0990
     18 N         139.9365  139.4778  162.4238 N.ar    1  UNL1       -0.2958
     19 H         138.1333  136.4514  162.0812 H       1  UNL1        0.1451
     20 H         137.4604  138.0182  162.0664 H       1  UNL1        0.1451
@<TRIPOS>BOND
     1    13    14    1
     2    14    15   ar
     3    15    16   ar
     4    16    17   ar
     5    17    18   ar
     6    18    12    1
     7    12     1    1
     8     1     2    1
     9     1     4    1
    10     4     5   ar
    11     5     6   ar
    12     6     7   ar
    13     7     8   ar
    14     8     9    1
    15     8    10   ar
    16    10    11    1
    17    18    14   ar
    18    10     4   ar
    19    13    19    1
    20    13    20    1
    21     2     3    1
@<TRIPOS>MOLECULE
*****
 20 21 0 0 0
SMALL
GASTEIGER

@<TRIPOS>ATOM
      1 C         139.9706  140.3591  167.8754 C.3     1  UNL1        0.1561
      2 O         139.0914  139.7490  168.9265 O.3     1  UNL1       -0.3780
      3 H         138.9281  138.8175  168.7107 H       1  UNL1        0.2109
      4 C         140.4474  139.5278  166.7214 C.ar    1  UNL1        0.0176
      5 C         141.9104  139.2393  166.5588 C.ar    1  UNL1       -0.0010
      6 C         142.3871  138.4080  165.4049 C.ar    1  UNL1        0.0007
      7 C         141.4009  137.8652  164.4136 C.ar    1  UNL1        0.0122
      8 C         139.9380  138.1537  164.5761 C.ar    1  UNL1        0.0680
      9 CL        138.9518  137.6109  163.5848 Cl      1  UNL1       -0.0814
     10 C         139.4612  138.9850  165.7301 C.ar    1  UNL1        0.0665
     11 CL        137.9982  139.2735  165.8927 Cl      1  UNL1       -0.0816
     12 C         140.3729  141.8004  167.9782 C.3     1  UNL1        0.1424
     13 N         139.8039  142.8912  171.0008 N.pl3   1  UNL1       -0.3288
     14 C         141.1513  142.7210  170.3640 C.ar    1  UNL1        0.1948
     15 N         142.4737  143.0222  171.0047 N.ar    1  UNL1       -0.2123
     16 C         143.5526  142.7070  170.0114 C.ar    1  UNL1        0.1205
     17 C         142.8969  142.2109  168.7567 C.ar    1  UNL1        0.0990
     18 N         141.4129  142.2196  168.9747 N.ar    1  UNL1       -0.2958
     19 H         139.7343  143.2290  171.9229 H       1  UNL1        0.1451
     20 H         138.9891  142.6651  170.4966 H       1  UNL1        0.1451
@<TRIPOS>BOND
     1    13    14    1
     2    14    15   ar
     3    15    16   ar
     4    16    17   ar
     5    17    18   ar
     6    18    12    1
     7    12     1    1
     8     1     2    1
     9     1     4    1
    10     4     5   ar
    11     5     6   ar
    12     6     7   ar
    13     7     8   ar
    14     8     9    1
    15     8    10   ar
    16    10    11    1
    17    18    14   ar
    18    10     4   ar
    19    13    19    1
    20    13    20    1
    21     2     3    1
@<TRIPOS>MOLECULE
*****
 20 21 0 0 0
SMALL
GASTEIGER

@<TRIPOS>ATOM
      1 C         142.1845  142.0017  166.9582 C.3     1  UNL1        0.1561
      2 O         140.9580  142.6939  166.4420 O.3     1  UNL1       -0.3780
      3 H         140.8643  142.5202  165.4922 H       1  UNL1        0.2109
      4 C         143.0403  141.1969  166.0253 C.ar    1  UNL1        0.0176
      5 C         142.9059  139.7036  165.9843 C.ar    1  UNL1       -0.0010
      6 C         143.7617  138.8990  165.0515 C.ar    1  UNL1        0.0007
      7 C         144.7517  139.5877  164.1596 C.ar    1  UNL1        0.0122
      8 C         144.8860  141.0811  164.2006 C.ar    1  UNL1        0.0680
      9 CL        145.8761  141.7699  163.3088 Cl      1  UNL1       -0.0814
     10 C         144.0303  141.8857  165.1335 C.ar    1  UNL1        0.0665
     11 CL        144.1646  143.3792  165.1745 Cl      1  UNL1       -0.0816
     12 C         142.5552  142.1141  168.4073 C.3     1  UNL1        0.1424
     13 N         142.5746  142.8174  171.5939 N.pl3   1  UNL1       -0.3288
     14 C         141.6957  141.8061  170.9196 C.ar    1  UNL1        0.1948
     15 N         140.6714  140.9405  171.5915 N.ar    1  UNL1       -0.2123
     16 C         140.0294  140.0822  170.5421 C.ar    1  UNL1        0.1205
     17 C         140.6570  140.4174  169.2215 C.ar    1  UNL1        0.0990
     18 N         141.6868  141.4828  169.4549 N.ar    1  UNL1       -0.2958
     19 H         142.5063  142.9588  172.5658 H       1  UNL1        0.1451
     20 H         143.2197  143.3398  171.0645 H       1  UNL1        0.1451
@<TRIPOS>BOND
     1    13    14    1
     2    14    15   ar
     3    15    16   ar
     4    16    17   ar
     5    17    18   ar
     6    18    12    1
     7    12     1    1
     8     1     2    1
     9     1     4    1
    10     4     5   ar
    11     5     6   ar
    12     6     7   ar
    13     7     8   ar
    14     8     9    1
    15     8    10   ar
    16    10    11    1
    17    18    14   ar
    18    10     4   ar
    19    13    19    1
    20    13    20    1
    21     2     3    1
@<TRIPOS>MOLECULE
*****
 20 21 0 0 0
SMALL
GASTEIGER

@<TRIPOS>ATOM
      1 C         137.8829  141.4444  164.1217 C.3     1  UNL1        0.1561
      2 O         136.7496  141.6277  163.1563 O.3     1  UNL1       -0.3780
      3 H         136.5270  140.7739  162.7532 H       1  UNL1        0.2109
      4 C         138.4805  140.0839  164.3273 C.ar    1  UNL1        0.0176
      5 C         138.1088  139.2764  165.5354 C.ar    1  UNL1       -0.0010
      6 C         138.7063  137.9160  165.7410 C.ar    1  UNL1        0.0007
      7 C         139.6754  137.3632  164.7384 C.ar    1  UNL1        0.0122
      8 C         140.0471  138.1707  163.5303 C.ar    1  UNL1        0.0680
      9 CL        141.0162  137.6179  162.5277 Cl      1  UNL1       -0.0814
     10 C         139.4496  139.5311  163.3247 C.ar    1  UNL1        0.0665
     11 CL        139.8212  140.3388  162.1165 Cl      1  UNL1       -0.0816
     12 C         138.4188  142.6215  164.8814 C.3     1  UNL1        0.1424
     13 N         137.5393  144.6270  162.4619 N.pl3   1  UNL1       -0.3288
     14 C         138.9021  144.5384  163.0822 C.ar    1  UNL1        0.1948
     15 N         140.0999  145.3561  162.6993 N.ar    1  UNL1       -0.2123
     16 C         141.2445  144.9397  163.5748 C.ar    1  UNL1        0.1205
     17 C         140.7541  143.8646  164.4988 C.ar    1  UNL1        0.0990
     18 N         139.3064  143.6166  164.1943 N.ar    1  UNL1       -0.2958
     19 H         137.3707  145.2671  161.7332 H       1  UNL1        0.1451
     20 H         136.8133  144.0449  162.7836 H       1  UNL1        0.1451
@<TRIPOS>BOND
     1    13    14    1
     2    14    15   ar
     3    15    16   ar
     4    16    17   ar
     5    17    18   ar
     6    18    12    1
     7    12     1    1
     8     1     2    1
     9     1     4    1
    10     4     5   ar
    11     5     6   ar
    12     6     7   ar
    13     7     8   ar
    14     8     9    1
    15     8    10   ar
    16    10    11    1
    17    18    14   ar
    18    10     4   ar
    19    13    19    1
    20    13    20    1
    21     2     3    1
@<TRIPOS>MOLECULE
*****
 20 21 0 0 0
SMALL
GASTEIGER

@<TRIPOS>ATOM
      1 C         138.1134  141.1893  163.2705 C.3     1  UNL1        0.1561
      2 O         136.6245  141.3628  163.2163 O.3     1  UNL1       -0.3780
      3 H         136.3072  141.7015  164.0680 H       1  UNL1        0.2109
      4 C         138.8631  141.5307  164.5241 C.ar    1  UNL1        0.0176
      5 C         139.5476  142.8594  164.6504 C.ar    1  UNL1       -0.0010
      6 C         140.2972  143.2007  165.9040 C.ar    1  UNL1        0.0007
      7 C         140.3624  142.2133  167.0313 C.ar    1  UNL1        0.0122
      8 C         139.6779  140.8846  166.9050 C.ar    1  UNL1        0.0680
      9 CL        139.7431  139.8972  168.0323 Cl      1  UNL1       -0.0814
     10 C         138.9283  140.5433  165.6514 C.ar    1  UNL1        0.0665
     11 CL        138.2437  139.2145  165.5251 Cl      1  UNL1       -0.0816
     12 C         138.8527  140.6745  162.0712 C.3     1  UNL1        0.1424
     13 N         138.1186  137.4948  162.0516 N.pl3   1  UNL1       -0.3288
     14 C         139.4897  138.0821  162.2102 C.ar    1  UNL1        0.1948
     15 N         140.7640  137.3111  162.3876 N.ar    1  UNL1       -0.2123
     16 C         141.8891  138.2961  162.5062 C.ar    1  UNL1        0.1205
     17 C         141.3100  139.6760  162.4021 C.ar    1  UNL1        0.0990
     18 N         139.8271  139.5436  162.2192 N.ar    1  UNL1       -0.2958
     19 H         137.9977  136.5178  162.0588 H       1  UNL1        0.1451
     20 H         137.3395  138.0864  161.9404 H       1  UNL1        0.1451
@<TRIPOS>BOND
     1    13    14    1
     2    14    15   ar
     3    15    16   ar
     4    16    17   ar
     5    17    18   ar
     6    18    12    1
     7    12     1    1
     8     1     2    1
     9     1     4    1
    10     4     5   ar
    11     5     6   ar
    12     6     7   ar
    13     7     8   ar
    14     8     9    1
    15     8    10   ar
    16    10    11    1
    17    18    14   ar
    18    10     4   ar
    19    13    19    1
    20    13    20    1
    21     2     3    1
