@<TRIPOS>MOLECULE
*****
 34 35 0 0 0
SMALL
GASTEIGER

@<TRIPOS>ATOM
      1 C         143.2588  138.5778  164.4016 C.ar    1  UNL1        0.0448
      2 C         142.1355  137.8550  163.7192 C.ar    1  UNL1       -0.0088
      3 C         141.9764  137.9511  162.2308 C.ar    1  UNL1        0.0014
      4 C         142.9407  138.7700  161.4248 C.ar    1  UNL1        0.0528
      5 C         144.0640  139.4927  162.1072 C.ar    1  UNL1        0.0014
      6 C         144.2231  139.3966  163.5956 C.ar    1  UNL1       -0.0088
      7 N         142.7109  139.2141  168.2804 N.am    1  UNL1       -0.1579
      8 C         142.5519  139.3102  166.7920 C.2     1  UNL1        0.3686
      9 O         141.5267  140.2349  166.2054 O.2     1  UNL1       -0.2332
     10 N         143.4179  138.4816  165.8901 N.am    1  UNL1       -0.2556
     11 H         143.3838  138.6072  168.6654 H       1  UNL1        0.2558
     12 H         144.0907  137.8747  166.2751 H       1  UNL1        0.1578
     13 C         141.8448  140.0427  169.1823 C.2     1  UNL1        0.3790
     14 N         141.1098  139.3956  170.3184 N.pl3   1  UNL1       -0.1311
     15 H         140.5414  139.9394  170.9103 H       1  UNL1        0.3060
     16 N         141.7139  141.5185  168.9480 N.pl3   1  UNL1       -0.2637
     17 H         140.8218  141.9330  168.9062 H       1  UNL1        0.2586
     18 C         143.9853  142.3954  169.8544 C.3     1  UNL1        0.0464
     19 C         142.9419  142.3627  168.7772 C.3     1  UNL1        0.1739
     20 C         142.7816  138.8661  159.9363 C.2     1  UNL1        0.2461
     21 O         143.8876  139.4370  159.0992 O.2     1  UNL1       -0.2701
     22 N         141.5166  138.3913  159.2850 N.am    1  UNL1       -0.2969
     23 H         140.7907  138.0166  159.8345 H       1  UNL1        0.1501
     24 C         141.3575  138.4874  157.7966 C.3     1  UNL1        0.1166
     25 C         141.5724  137.2752  156.9395 C.ar    1  UNL1       -0.0026
     26 C         142.8246  136.4632  157.0893 C.ar    1  UNL1       -0.0026
     27 C         143.0395  135.2510  156.2323 C.ar    1  UNL1       -0.0003
     28 C         142.0021  134.8508  155.2254 C.ar    1  UNL1       -0.0000
     29 C         140.7498  135.6629  155.0757 C.ar    1  UNL1       -0.0003
     30 C         140.5350  136.8751  155.9327 C.ar    1  UNL1       -0.0026
     31 C         141.1712  137.0361  164.5252 C.3     1  UNL1        0.0276
     32 C         139.7996  137.5672  164.8196 C.3     1  UNL1        0.0051
     33 C         145.3465  140.1194  164.2781 C.3     1  UNL1        0.0276
     34 C         145.7395  141.4939  163.8238 C.3     1  UNL1        0.0051
@<TRIPOS>BOND
     1    18    19    1
     2    19    16    1
     3    16    13    1
     4    13    14    2
     5    13     7    1
     6     7     8   am
     7     8     9    2
     8     8    10   am
     9    10     1    1
    10     1     2   ar
    11     2    31    1
    12    31    32    1
    13     2     3   ar
    14     3     4   ar
    15     4    20    1
    16    20    21    2
    17    20    22   am
    18    22    24    1
    19    24    25    1
    20    25    26   ar
    21    26    27   ar
    22    27    28   ar
    23    28    29   ar
    24    29    30   ar
    25     4     5   ar
    26     5     6   ar
    27     6    33    1
    28    33    34    1
    29     6     1   ar
    30    30    25   ar
    31    16    17    1
    32    14    15    1
    33     7    11    1
    34    10    12    1
    35    22    23    1
@<TRIPOS>MOLECULE
*****
 34 35 0 0 0
SMALL
GASTEIGER

@<TRIPOS>ATOM
      1 C         142.9176  138.4664  164.4518 C.ar    1  UNL1        0.0448
      2 C         141.6957  137.8487  163.8391 C.ar    1  UNL1       -0.0088
      3 C         141.4875  137.9114  162.3550 C.ar    1  UNL1        0.0014
      4 C         142.5011  138.5919  161.4835 C.ar    1  UNL1        0.0528
      5 C         143.7230  139.2096  162.0962 C.ar    1  UNL1        0.0014
      6 C         143.9313  139.1468  163.5803 C.ar    1  UNL1       -0.0088
      7 N         142.9441  139.5050  168.2820 N.am    1  UNL1       -0.1579
      8 C         142.7359  139.5677  166.7979 C.2     1  UNL1        0.3686
      9 O         142.1377  140.7945  166.1757 O.2     1  UNL1       -0.2332
     10 N         143.1259  138.4037  165.9360 N.am    1  UNL1       -0.2556
     11 H         143.3368  138.6998  168.6904 H       1  UNL1        0.2558
     12 H         143.5185  137.5985  166.3443 H       1  UNL1        0.1578
     13 C         142.5541  140.6691  169.1440 C.2     1  UNL1        0.3790
     14 N         143.3523  140.9938  170.3717 N.pl3   1  UNL1       -0.1311
     15 H         143.0963  141.7578  170.9374 H       1  UNL1        0.3060
     16 N         141.3660  141.5084  168.7780 N.pl3   1  UNL1       -0.2637
     17 H         141.4948  142.3735  168.3262 H       1  UNL1        0.2586
     18 C         139.3486  139.9517  168.2712 C.3     1  UNL1        0.0464
     19 C         139.9816  141.0295  169.1005 C.3     1  UNL1        0.1739
     20 C         142.2929  138.6546  159.9994 C.2     1  UNL1        0.2461
     21 O         141.4057  139.7110  159.4105 O.2     1  UNL1       -0.2701
     22 N         142.9719  137.6609  159.1041 N.am    1  UNL1       -0.2969
     23 H         143.5543  136.9676  159.4906 H       1  UNL1        0.1501
     24 C         142.7637  137.7237  157.6199 C.3     1  UNL1        0.1166
     25 C         142.4182  136.4787  156.8578 C.ar    1  UNL1       -0.0026
     26 C         143.1392  135.1962  157.1497 C.ar    1  UNL1       -0.0026
     27 C         142.7937  133.9513  156.3876 C.ar    1  UNL1       -0.0003
     28 C         141.7272  133.9889  155.3335 C.ar    1  UNL1       -0.0000
     29 C         141.0062  135.2715  155.0416 C.ar    1  UNL1       -0.0003
     30 C         141.3517  136.5163  155.8037 C.ar    1  UNL1       -0.0026
     31 C         140.6820  137.1683  164.7106 C.3     1  UNL1        0.0276
     32 C         139.3411  137.8015  164.9363 C.3     1  UNL1        0.0051
     33 C         145.1532  139.7646  164.1930 C.3     1  UNL1        0.0276
     34 C         145.5072  141.1896  163.8864 C.3     1  UNL1        0.0051
@<TRIPOS>BOND
     1    18    19    1
     2    19    16    1
     3    16    13    1
     4    13    14    2
     5    13     7    1
     6     7     8   am
     7     8     9    2
     8     8    10   am
     9    10     1    1
    10     1     2   ar
    11     2    31    1
    12    31    32    1
    13     2     3   ar
    14     3     4   ar
    15     4    20    1
    16    20    21    2
    17    20    22   am
    18    22    24    1
    19    24    25    1
    20    25    26   ar
    21    26    27   ar
    22    27    28   ar
    23    28    29   ar
    24    29    30   ar
    25     4     5   ar
    26     5     6   ar
    27     6    33    1
    28    33    34    1
    29     6     1   ar
    30    30    25   ar
    31    16    17    1
    32    14    15    1
    33     7    11    1
    34    10    12    1
    35    22    23    1
@<TRIPOS>MOLECULE
*****
 34 35 0 0 0
SMALL
GASTEIGER

@<TRIPOS>ATOM
      1 C         142.9349  138.3859  164.4231 C.ar    1  UNL1        0.0448
      2 C         143.9525  139.0989  163.5828 C.ar    1  UNL1       -0.0088
      3 C         143.7623  139.1986  162.0983 C.ar    1  UNL1        0.0014
      4 C         142.5546  138.5853  161.4540 C.ar    1  UNL1        0.0528
      5 C         141.5370  137.8723  162.2943 C.ar    1  UNL1        0.0014
      6 C         141.7272  137.7726  163.7788 C.ar    1  UNL1       -0.0088
      7 N         142.9622  139.3481  168.2732 N.am    1  UNL1       -0.1579
      8 C         142.7720  139.4478  166.7887 C.2     1  UNL1        0.3686
      9 O         142.2288  140.7090  166.1851 O.2     1  UNL1       -0.2332
     10 N         143.1251  138.2863  165.9077 N.am    1  UNL1       -0.2556
     11 H         143.3187  138.5203  168.6693 H       1  UNL1        0.2558
     12 H         143.4816  137.4585  166.3038 H       1  UNL1        0.1578
     13 C         142.6091  140.5097  169.1542 C.2     1  UNL1        0.3790
     14 N         143.4691  140.8423  170.3373 N.pl3   1  UNL1       -0.1311
     15 H         143.2374  141.6047  170.9155 H       1  UNL1        0.3060
     16 N         141.3959  141.3385  168.8521 N.pl3   1  UNL1       -0.2637
     17 H         141.3316  141.8238  167.9979 H       1  UNL1        0.2586
     18 C         139.1400  140.4562  169.7913 C.3     1  UNL1        0.0464
     19 C         140.2809  141.4281  169.8514 C.3     1  UNL1        0.1739
     20 C         142.3644  138.6849  159.9694 C.2     1  UNL1        0.2461
     21 O         141.5946  139.8332  159.3873 O.2     1  UNL1       -0.2701
     22 N         142.9441  137.6364  159.0670 N.am    1  UNL1       -0.2969
     23 H         143.4494  136.8828  159.4490 H       1  UNL1        0.1501
     24 C         142.7539  137.7361  157.5824 C.3     1  UNL1        0.1166
     25 C         142.3897  136.5160  156.7894 C.ar    1  UNL1       -0.0026
     26 C         141.2906  136.5841  155.7709 C.ar    1  UNL1       -0.0026
     27 C         140.9263  135.3640  154.9778 C.ar    1  UNL1       -0.0003
     28 C         141.6612  134.0759  155.2033 C.ar    1  UNL1       -0.0000
     29 C         142.7603  134.0079  156.2219 C.ar    1  UNL1       -0.0003
     30 C         143.1245  135.2279  157.0149 C.ar    1  UNL1       -0.0026
     31 C         145.1603  139.7123  164.2271 C.3     1  UNL1        0.0276
     32 C         145.4745  141.1620  164.0040 C.3     1  UNL1        0.0051
     33 C         140.7095  137.0595  164.6191 C.3     1  UNL1        0.0276
     34 C         139.4112  137.7312  164.9556 C.3     1  UNL1        0.0051
@<TRIPOS>BOND
     1    18    19    1
     2    19    16    1
     3    16    13    1
     4    13    14    2
     5    13     7    1
     6     7     8   am
     7     8     9    2
     8     8    10   am
     9    10     1    1
    10     1     2   ar
    11     2    31    1
    12    31    32    1
    13     2     3   ar
    14     3     4   ar
    15     4    20    1
    16    20    21    2
    17    20    22   am
    18    22    24    1
    19    24    25    1
    20    25    26   ar
    21    26    27   ar
    22    27    28   ar
    23    28    29   ar
    24    29    30   ar
    25     4     5   ar
    26     5     6   ar
    27     6    33    1
    28    33    34    1
    29     6     1   ar
    30    30    25   ar
    31    16    17    1
    32    14    15    1
    33     7    11    1
    34    10    12    1
    35    22    23    1
@<TRIPOS>MOLECULE
*****
 34 35 0 0 0
SMALL
GASTEIGER

@<TRIPOS>ATOM
      1 C         139.9228  141.0049  167.6015 C.ar    1  UNL1        0.0448
      2 C         140.3477  142.4406  167.5119 C.ar    1  UNL1       -0.0088
      3 C         140.0724  143.2279  166.2652 C.ar    1  UNL1        0.0014
      4 C         139.3722  142.5795  165.1080 C.ar    1  UNL1        0.0528
      5 C         138.9472  141.1438  165.1975 C.ar    1  UNL1        0.0014
      6 C         139.2225  140.3565  166.4443 C.ar    1  UNL1       -0.0088
      7 N         141.8660  138.9588  170.3920 N.am    1  UNL1       -0.1579
      8 C         141.5907  139.7461  169.1453 C.2     1  UNL1        0.3686
      9 O         142.7081  140.0619  168.1956 O.2     1  UNL1       -0.2332
     10 N         140.1981  140.2176  168.8482 N.am    1  UNL1       -0.2556
     11 H         141.1326  138.7515  171.0153 H       1  UNL1        0.2558
     12 H         139.4647  140.0103  169.4715 H       1  UNL1        0.1578
     13 C         143.2587  138.4873  170.6891 C.2     1  UNL1        0.3790
     14 N         144.1848  139.3464  171.4979 N.pl3   1  UNL1       -0.1311
     15 H         145.0989  139.0369  171.6928 H       1  UNL1        0.3060
     16 N         143.7251  137.1567  170.1774 N.pl3   1  UNL1       -0.2637
     17 H         143.3517  136.7919  169.3427 H       1  UNL1        0.2586
     18 C         144.3386  135.3807  171.9717 C.3     1  UNL1        0.0464
     19 C         144.7605  136.3818  170.9374 C.3     1  UNL1        0.1739
     20 C         139.0969  143.3668  163.8612 C.2     1  UNL1        0.2461
     21 O         137.8440  144.1842  163.7517 O.2     1  UNL1       -0.2701
     22 N         140.0745  143.3368  162.7240 N.am    1  UNL1       -0.2969
     23 H         140.8969  142.8003  162.7959 H       1  UNL1        0.1501
     24 C         139.7992  144.1241  161.4773 C.3     1  UNL1        0.1166
     25 C         140.7834  144.1048  160.3454 C.ar    1  UNL1       -0.0026
     26 C         140.7819  145.2100  159.3313 C.ar    1  UNL1       -0.0026
     27 C         141.7661  145.1907  158.1994 C.ar    1  UNL1       -0.0003
     28 C         142.7518  144.0663  158.0818 C.ar    1  UNL1       -0.0000
     29 C         142.7534  142.9610  159.0960 C.ar    1  UNL1       -0.0003
     30 C         141.7692  142.9803  160.2278 C.ar    1  UNL1       -0.0026
     31 C         141.0480  143.0891  168.6692 C.3     1  UNL1        0.0276
     32 C         140.2655  143.5169  169.8752 C.3     1  UNL1        0.0051
     33 C         138.7975  138.9207  166.5338 C.3     1  UNL1        0.0276
     34 C         138.7851  138.0641  165.3025 C.3     1  UNL1        0.0051
@<TRIPOS>BOND
     1    18    19    1
     2    19    16    1
     3    16    13    1
     4    13    14    2
     5    13     7    1
     6     7     8   am
     7     8     9    2
     8     8    10   am
     9    10     1    1
    10     1     2   ar
    11     2    31    1
    12    31    32    1
    13     2     3   ar
    14     3     4   ar
    15     4    20    1
    16    20    21    2
    17    20    22   am
    18    22    24    1
    19    24    25    1
    20    25    26   ar
    21    26    27   ar
    22    27    28   ar
    23    28    29   ar
    24    29    30   ar
    25     4     5   ar
    26     5     6   ar
    27     6    33    1
    28    33    34    1
    29     6     1   ar
    30    30    25   ar
    31    16    17    1
    32    14    15    1
    33     7    11    1
    34    10    12    1
    35    22    23    1
@<TRIPOS>MOLECULE
*****
 34 35 0 0 0
SMALL
GASTEIGER

@<TRIPOS>ATOM
      1 C         143.0426  138.5327  164.3344 C.ar    1  UNL1        0.0448
      2 C         141.8440  137.9258  163.6673 C.ar    1  UNL1       -0.0088
      3 C         141.6097  138.1453  162.2021 C.ar    1  UNL1        0.0014
      4 C         142.5739  138.9718  161.4039 C.ar    1  UNL1        0.0528
      5 C         143.7725  139.5787  162.0710 C.ar    1  UNL1        0.0014
      6 C         144.0068  139.3591  163.5362 C.ar    1  UNL1       -0.0088
      7 N         143.0542  139.1191  168.2594 N.am    1  UNL1       -0.1579
      8 C         142.8198  139.3387  166.7942 C.2     1  UNL1        0.3686
      9 O         142.1283  140.5838  166.3235 O.2     1  UNL1       -0.2332
     10 N         143.2769  138.3131  165.7996 N.am    1  UNL1       -0.2556
     11 H         143.5080  138.3019  168.5683 H       1  UNL1        0.2558
     12 H         143.7308  137.4959  166.1085 H       1  UNL1        0.1578
     13 C         142.5970  140.1447  169.2540 C.2     1  UNL1        0.3790
     14 N         143.4166  140.4180  170.4801 N.pl3   1  UNL1       -0.1311
     15 H         143.1166  141.0911  171.1329 H       1  UNL1        0.3060
     16 N         141.3201  140.8971  169.0224 N.pl3   1  UNL1       -0.2637
     17 H         141.3484  141.8447  168.7570 H       1  UNL1        0.2586
     18 C         139.2002  139.8053  167.9911 C.3     1  UNL1        0.0464
     19 C         140.0003  140.2056  169.1950 C.3     1  UNL1        0.1739
     20 C         142.3396  139.1913  159.9387 C.2     1  UNL1        0.2461
     21 O         141.1446  139.9728  159.4791 O.2     1  UNL1       -0.2701
     22 N         143.3002  138.6295  158.9331 N.am    1  UNL1       -0.2969
     23 H         144.0846  138.1166  159.2347 H       1  UNL1        0.1501
     24 C         143.0659  138.8490  157.4678 C.3     1  UNL1        0.1166
     25 C         143.7945  139.9448  156.7477 C.ar    1  UNL1       -0.0026
     26 C         143.5444  141.3779  157.1131 C.ar    1  UNL1       -0.0026
     27 C         144.2730  142.4737  156.3929 C.ar    1  UNL1       -0.0003
     28 C         145.2516  142.1362  155.3074 C.ar    1  UNL1       -0.0000
     29 C         145.5017  140.7030  154.9421 C.ar    1  UNL1       -0.0003
     30 C         144.7732  139.6073  155.6622 C.ar    1  UNL1       -0.0026
     31 C         140.8797  137.0992  164.4655 C.3     1  UNL1        0.0276
     32 C         139.5549  137.6746  164.8702 C.3     1  UNL1        0.0051
     33 C         145.2055  139.9661  164.2032 C.3     1  UNL1        0.0276
     34 C         145.6377  141.3576  163.8469 C.3     1  UNL1        0.0051
@<TRIPOS>BOND
     1    18    19    1
     2    19    16    1
     3    16    13    1
     4    13    14    2
     5    13     7    1
     6     7     8   am
     7     8     9    2
     8     8    10   am
     9    10     1    1
    10     1     2   ar
    11     2    31    1
    12    31    32    1
    13     2     3   ar
    14     3     4   ar
    15     4    20    1
    16    20    21    2
    17    20    22   am
    18    22    24    1
    19    24    25    1
    20    25    26   ar
    21    26    27   ar
    22    27    28   ar
    23    28    29   ar
    24    29    30   ar
    25     4     5   ar
    26     5     6   ar
    27     6    33    1
    28    33    34    1
    29     6     1   ar
    30    30    25   ar
    31    16    17    1
    32    14    15    1
    33     7    11    1
    34    10    12    1
    35    22    23    1
@<TRIPOS>MOLECULE
*****
 34 35 0 0 0
SMALL
GASTEIGER

@<TRIPOS>ATOM
      1 C         141.2768  140.5069  165.3821 C.ar    1  UNL1        0.0448
      2 C         141.3530  141.9423  164.9536 C.ar    1  UNL1       -0.0088
      3 C         142.2890  142.3480  163.8539 C.ar    1  UNL1        0.0014
      4 C         143.1487  141.3183  163.1827 C.ar    1  UNL1        0.0528
      5 C         143.0725  139.8829  163.6112 C.ar    1  UNL1        0.0014
      6 C         142.1365  139.4772  164.7109 C.ar    1  UNL1       -0.0088
      7 N         139.8145  139.8622  169.0147 N.am    1  UNL1       -0.1579
      8 C         140.7505  140.2680  167.9150 C.2     1  UNL1        0.3686
      9 O         142.0962  140.8406  168.2487 O.2     1  UNL1       -0.2332
     10 N         140.3408  140.1011  166.4818 N.am    1  UNL1       -0.2556
     11 H         138.9313  139.4864  168.7958 H       1  UNL1        0.2558
     12 H         139.4576  139.7253  166.2628 H       1  UNL1        0.1578
     13 C         140.2242  140.0291  170.4480 C.2     1  UNL1        0.3790
     14 N         139.7130  139.0786  171.4897 N.pl3   1  UNL1       -0.1311
     15 H         139.9820  139.1881  172.4304 H       1  UNL1        0.3060
     16 N         141.1451  141.1465  170.8396 N.pl3   1  UNL1       -0.2637
     17 H         142.1087  140.9755  170.9471 H       1  UNL1        0.2586
     18 C         140.3316  143.4279  169.8998 C.3     1  UNL1        0.0464
     19 C         140.5980  142.5245  171.0672 C.3     1  UNL1        0.1739
     20 C         144.0847  141.7241  162.0830 C.2     1  UNL1        0.2461
     21 O         145.5637  141.7563  162.3307 O.2     1  UNL1       -0.2701
     22 N         143.5417  142.0976  160.7356 N.am    1  UNL1       -0.2969
     23 H         142.5709  142.0765  160.5730 H       1  UNL1        0.1501
     24 C         144.4777  142.5033  159.6359 C.3     1  UNL1        0.1166
     25 C         144.5478  141.6949  158.3743 C.ar    1  UNL1       -0.0026
     26 C         145.5563  142.0384  157.3185 C.ar    1  UNL1       -0.0026
     27 C         145.6265  141.2300  156.0569 C.ar    1  UNL1       -0.0003
     28 C         144.6881  140.0779  155.8512 C.ar    1  UNL1       -0.0000
     29 C         143.6795  139.7344  156.9071 C.ar    1  UNL1       -0.0003
     30 C         143.6094  140.5429  158.1686 C.ar    1  UNL1       -0.0026
     31 C         140.4933  142.9721  165.6248 C.3     1  UNL1        0.0276
     32 C         139.2869  143.5172  164.9194 C.3     1  UNL1        0.0051
     33 C         142.0603  138.0416  165.1394 C.3     1  UNL1        0.0276
     34 C         141.1144  137.1027  164.4510 C.3     1  UNL1        0.0051
@<TRIPOS>BOND
     1    18    19    1
     2    19    16    1
     3    16    13    1
     4    13    14    2
     5    13     7    1
     6     7     8   am
     7     8     9    2
     8     8    10   am
     9    10     1    1
    10     1     2   ar
    11     2    31    1
    12    31    32    1
    13     2     3   ar
    14     3     4   ar
    15     4    20    1
    16    20    21    2
    17    20    22   am
    18    22    24    1
    19    24    25    1
    20    25    26   ar
    21    26    27   ar
    22    27    28   ar
    23    28    29   ar
    24    29    30   ar
    25     4     5   ar
    26     5     6   ar
    27     6    33    1
    28    33    34    1
    29     6     1   ar
    30    30    25   ar
    31    16    17    1
    32    14    15    1
    33     7    11    1
    34    10    12    1
    35    22    23    1
@<TRIPOS>MOLECULE
*****
 34 35 0 0 0
SMALL
GASTEIGER

@<TRIPOS>ATOM
      1 C         138.4721  139.3266  164.1864 C.ar    1  UNL1        0.0448
      2 C         137.9655  140.4482  163.3290 C.ar    1  UNL1       -0.0088
      3 C         138.2482  140.4529  161.8559 C.ar    1  UNL1        0.0014
      4 C         139.0375  139.3358  161.2401 C.ar    1  UNL1        0.0528
      5 C         139.5442  138.2142  162.0975 C.ar    1  UNL1        0.0014
      6 C         139.2615  138.2096  163.5707 C.ar    1  UNL1       -0.0088
      7 N         138.9546  139.7846  168.0988 N.am    1  UNL1       -0.1579
      8 C         139.2373  139.7892  166.6257 C.2     1  UNL1        0.3686
      9 O         140.5679  140.2610  166.1189 O.2     1  UNL1       -0.2332
     10 N         138.1894  139.3220  165.6595 N.am    1  UNL1       -0.2556
     11 H         138.0813  139.4749  168.4315 H       1  UNL1        0.2558
     12 H         137.3161  139.0123  165.9921 H       1  UNL1        0.1578
     13 C         140.0025  140.2518  169.0651 C.2     1  UNL1        0.3790
     14 N         141.4403  139.8833  168.8483 N.pl3   1  UNL1       -0.1311
     15 H         142.1281  140.1899  169.4825 H       1  UNL1        0.3060
     16 N         139.6127  141.0876  170.2481 N.pl3   1  UNL1       -0.2637
     17 H         139.0657  140.6973  170.9677 H       1  UNL1        0.2586
     18 C         140.4012  143.2731  169.0855 C.3     1  UNL1        0.0464
     19 C         140.0561  142.5178  170.3348 C.3     1  UNL1        0.1739
     20 C         139.3202  139.3404  159.7670 C.2     1  UNL1        0.2461
     21 O         138.2672  139.7998  158.8027 O.2     1  UNL1       -0.2701
     22 N         140.6560  138.8857  159.2583 N.am    1  UNL1       -0.2969
     23 H         141.3472  138.5841  159.8912 H       1  UNL1        0.1501
     24 C         140.9387  138.8903  157.7851 C.3     1  UNL1        0.1166
     25 C         141.3719  137.6278  157.1006 C.ar    1  UNL1       -0.0026
     26 C         140.4976  137.0045  156.0533 C.ar    1  UNL1       -0.0026
     27 C         140.9308  135.7420  155.3687 C.ar    1  UNL1       -0.0003
     28 C         142.2384  135.1028  155.7317 C.ar    1  UNL1       -0.0000
     29 C         143.1127  135.7262  156.7791 C.ar    1  UNL1       -0.0003
     30 C         142.6795  136.9886  157.4636 C.ar    1  UNL1       -0.0026
     31 C         137.1761  141.5654  163.9447 C.3     1  UNL1        0.0276
     32 C         137.8798  142.7856  164.4602 C.3     1  UNL1        0.0051
     33 C         139.7681  137.0878  164.4281 C.3     1  UNL1        0.0276
     34 C         141.2407  136.9342  164.6690 C.3     1  UNL1        0.0051
@<TRIPOS>BOND
     1    18    19    1
     2    19    16    1
     3    16    13    1
     4    13    14    2
     5    13     7    1
     6     7     8   am
     7     8     9    2
     8     8    10   am
     9    10     1    1
    10     1     2   ar
    11     2    31    1
    12    31    32    1
    13     2     3   ar
    14     3     4   ar
    15     4    20    1
    16    20    21    2
    17    20    22   am
    18    22    24    1
    19    24    25    1
    20    25    26   ar
    21    26    27   ar
    22    27    28   ar
    23    28    29   ar
    24    29    30   ar
    25     4     5   ar
    26     5     6   ar
    27     6    33    1
    28    33    34    1
    29     6     1   ar
    30    30    25   ar
    31    16    17    1
    32    14    15    1
    33     7    11    1
    34    10    12    1
    35    22    23    1
@<TRIPOS>MOLECULE
*****
 34 35 0 0 0
SMALL
GASTEIGER

@<TRIPOS>ATOM
      1 C         140.3538  140.9541  164.8159 C.ar    1  UNL1        0.0448
      2 C         139.7197  142.1659  164.2000 C.ar    1  UNL1       -0.0088
      3 C         140.4030  142.8776  163.0702 C.ar    1  UNL1        0.0014
      4 C         141.7205  142.3775  162.5562 C.ar    1  UNL1        0.0528
      5 C         142.3546  141.1657  163.1721 C.ar    1  UNL1        0.0014
      6 C         141.6713  140.4540  164.3020 C.ar    1  UNL1       -0.0088
      7 N         139.2723  139.9276  168.4938 N.am    1  UNL1       -0.1579
      8 C         139.9556  140.6393  167.3639 C.2     1  UNL1        0.3686
      9 O         140.9241  141.7479  167.6523 O.2     1  UNL1       -0.2332
     10 N         139.6705  140.2424  165.9458 N.am    1  UNL1       -0.2556
     11 H         138.6367  139.2000  168.3045 H       1  UNL1        0.2558
     12 H         139.0349  139.5148  165.7565 H       1  UNL1        0.1578
     13 C         139.5574  140.3245  169.9120 C.2     1  UNL1        0.3790
     14 N         140.2501  139.3657  170.8343 N.pl3   1  UNL1       -0.1311
     15 H         140.4372  139.6262  171.7651 H       1  UNL1        0.3060
     16 N         139.1499  141.6803  170.4077 N.pl3   1  UNL1       -0.2637
     17 H         138.1959  141.9149  170.4713 H       1  UNL1        0.2586
     18 C         140.3337  143.9647  170.0468 C.3     1  UNL1        0.0464
     19 C         140.1959  142.6786  170.8065 C.3     1  UNL1        0.1739
     20 C         142.4038  143.0892  161.4264 C.2     1  UNL1        0.2461
     21 O         143.2352  144.3072  161.7007 O.2     1  UNL1       -0.2701
     22 N         142.2556  142.5830  160.0222 N.am    1  UNL1       -0.2969
     23 H         141.7099  141.7837  159.8422 H       1  UNL1        0.1501
     24 C         142.9390  143.2947  158.8924 C.3     1  UNL1        0.1166
     25 C         142.1596  144.2264  158.0122 C.ar    1  UNL1       -0.0026
     26 C         141.0928  145.0997  158.6031 C.ar    1  UNL1       -0.0026
     27 C         140.3134  146.0314  157.7229 C.ar    1  UNL1       -0.0003
     28 C         140.6010  146.0898  156.2519 C.ar    1  UNL1       -0.0000
     29 C         141.6679  145.2164  155.6610 C.ar    1  UNL1       -0.0003
     30 C         142.4472  144.2848  156.5412 C.ar    1  UNL1       -0.0026
     31 C         138.4022  142.6661  164.7140 C.3     1  UNL1        0.0276
     32 C         138.1120  144.1377  164.7271 C.3     1  UNL1        0.0051
     33 C         142.3055  139.2422  164.9179 C.3     1  UNL1        0.0276
     34 C         141.8943  137.8710  164.4698 C.3     1  UNL1        0.0051
@<TRIPOS>BOND
     1    18    19    1
     2    19    16    1
     3    16    13    1
     4    13    14    2
     5    13     7    1
     6     7     8   am
     7     8     9    2
     8     8    10   am
     9    10     1    1
    10     1     2   ar
    11     2    31    1
    12    31    32    1
    13     2     3   ar
    14     3     4   ar
    15     4    20    1
    16    20    21    2
    17    20    22   am
    18    22    24    1
    19    24    25    1
    20    25    26   ar
    21    26    27   ar
    22    27    28   ar
    23    28    29   ar
    24    29    30   ar
    25     4     5   ar
    26     5     6   ar
    27     6    33    1
    28    33    34    1
    29     6     1   ar
    30    30    25   ar
    31    16    17    1
    32    14    15    1
    33     7    11    1
    34    10    12    1
    35    22    23    1
@<TRIPOS>MOLECULE
*****
 34 35 0 0 0
SMALL
GASTEIGER

@<TRIPOS>ATOM
      1 C         141.8524  140.0339  167.7008 C.ar    1  UNL1        0.0448
      2 C         140.3777  140.0193  167.9743 C.ar    1  UNL1       -0.0088
      3 C         139.4081  139.8135  166.8485 C.ar    1  UNL1        0.0014
      4 C         139.9132  139.6223  165.4491 C.ar    1  UNL1        0.0528
      5 C         141.3880  139.6370  165.1756 C.ar    1  UNL1        0.0014
      6 C         142.3576  139.8428  166.3015 C.ar    1  UNL1       -0.0088
      7 N         144.1910  141.8345  170.3539 N.am    1  UNL1       -0.1579
      8 C         143.2214  141.6287  169.2281 C.2     1  UNL1        0.3686
      9 O         142.6511  142.8120  168.5037 O.2     1  UNL1       -0.2332
     10 N         142.8220  140.2397  168.8267 N.am    1  UNL1       -0.2556
     11 H         144.5653  141.0579  170.8294 H       1  UNL1        0.2558
     12 H         143.1963  139.4631  169.3021 H       1  UNL1        0.1578
     13 C         144.5903  143.2236  170.7553 C.2     1  UNL1        0.3790
     14 N         143.5547  144.1868  171.2552 N.pl3   1  UNL1       -0.1311
     15 H         143.8168  145.0984  171.5186 H       1  UNL1        0.3060
     16 N         146.0252  143.6495  170.6569 N.pl3   1  UNL1       -0.2637
     17 H         146.7114  143.0047  170.3693 H       1  UNL1        0.2586
     18 C         147.2682  145.3303  172.1995 C.3     1  UNL1        0.0464
     19 C         146.4146  145.0576  170.9966 C.3     1  UNL1        0.1739
     20 C         138.9436  139.4165  164.3233 C.2     1  UNL1        0.2461
     21 O         137.7639  140.3306  164.1730 O.2     1  UNL1       -0.2701
     22 N         139.1538  138.2966  163.3478 N.am    1  UNL1       -0.2969
     23 H         139.9281  137.6967  163.4464 H       1  UNL1        0.1501
     24 C         138.1841  138.0908  162.2219 C.3     1  UNL1        0.1166
     25 C         138.4390  138.7260  160.8871 C.ar    1  UNL1       -0.0026
     26 C         137.5644  139.8477  160.4110 C.ar    1  UNL1       -0.0026
     27 C         137.8192  140.4829  159.0762 C.ar    1  UNL1       -0.0003
     28 C         138.9487  139.9962  158.2175 C.ar    1  UNL1       -0.0000
     29 C         139.8234  138.8744  158.6936 C.ar    1  UNL1       -0.0003
     30 C         139.5685  138.2393  160.0284 C.ar    1  UNL1       -0.0026
     31 C         139.8725  140.2104  169.3738 C.3     1  UNL1        0.0276
     32 C         139.5898  141.5912  169.8870 C.3     1  UNL1        0.0051
     33 C         143.8324  139.8574  166.0279 C.3     1  UNL1        0.0276
     34 C         144.3661  139.2578  164.7608 C.3     1  UNL1        0.0051
@<TRIPOS>BOND
     1    18    19    1
     2    19    16    1
     3    16    13    1
     4    13    14    2
     5    13     7    1
     6     7     8   am
     7     8     9    2
     8     8    10   am
     9    10     1    1
    10     1     2   ar
    11     2    31    1
    12    31    32    1
    13     2     3   ar
    14     3     4   ar
    15     4    20    1
    16    20    21    2
    17    20    22   am
    18    22    24    1
    19    24    25    1
    20    25    26   ar
    21    26    27   ar
    22    27    28   ar
    23    28    29   ar
    24    29    30   ar
    25     4     5   ar
    26     5     6   ar
    27     6    33    1
    28    33    34    1
    29     6     1   ar
    30    30    25   ar
    31    16    17    1
    32    14    15    1
    33     7    11    1
    34    10    12    1
    35    22    23    1
