@<TRIPOS>MOLECULE
*****
 39 44 0 0 0
SMALL
GASTEIGER

@<TRIPOS>ATOM
      1 O         144.0497  139.5162  157.3005 O.2     1  UNL1       -0.2733
      2 C         143.4836  138.2508  156.7276 C.2     1  UNL1        0.2425
      3 N         142.6410  137.3515  157.5827 N.am    1  UNL1       -0.3018
      4 H         142.2694  136.5210  157.2067 H       1  UNL1        0.1495
      5 C         142.3645  137.7177  159.0109 C.3     1  UNL1        0.1035
      6 C         143.1206  137.6015  160.3011 C.3     1  UNL1        0.0933
      7 N         141.9734  138.2356  161.0305 N.3     1  UNL1       -0.2711
      8 C         141.2173  138.3518  159.7403 C.3     1  UNL1        0.0933
      9 C         141.6970  138.6017  162.4586 C.3     1  UNL1        0.0576
     10 C         141.2437  137.5507  163.4281 C.3     1  UNL1        0.0163
     11 C         140.9672  137.9169  164.8562 C.3     1  UNL1        0.0057
     12 C         141.1440  139.3341  165.3148 C.3     1  UNL1        0.0225
     13 C         141.5973  140.3851  164.3453 C.3     1  UNL1        0.0057
     14 C         141.8738  140.0189  162.9172 C.3     1  UNL1        0.0163
     15 C         140.8676  139.7003  166.7429 C.ar    1  UNL1       -0.0193
     16 C         139.4554  139.7398  167.2472 C.ar    1  UNL1       -0.0010
     17 C         139.1788  140.1060  168.6752 C.ar    1  UNL1        0.0399
     18 C         140.3145  140.4329  169.5990 C.ar    1  UNL1        0.1764
     19 C         141.7266  140.3935  169.0948 C.ar    1  UNL1        0.1761
     20 C         142.0032  140.0272  167.6667 C.ar    1  UNL1        0.0359
     21 O         142.6347  140.7619  170.2304 O.3     1  UNL1       -0.4346
     22 C         141.7838  141.0290  171.4365 C.3     1  UNL1        0.4294
     23 O         140.3498  140.8257  171.0463 O.3     1  UNL1       -0.4346
     24 C         143.7600  137.8847  155.2995 C.3     1  UNL1        0.1747
     25 N         144.1564  136.4811  154.9483 N.pl3   1  UNL1       -0.3080
     26 H         145.1082  136.2320  154.9158 H       1  UNL1        0.1487
     27 C         143.1023  135.4574  154.6467 C.ar    1  UNL1        0.1708
     28 N         141.9330  135.6409  153.7254 N.ar    1  UNL1       -0.0621
     29 O         141.1406  134.3673  153.7228 O.2     1  UNL1       -0.3522
     30 C         141.8202  133.3966  154.6425 C.ar    1  UNL1        0.1781
     31 C         141.4917  131.9863  155.0338 C.ar    1  UNL1        0.0402
     32 C         142.3756  131.2498  155.9961 C.ar    1  UNL1        0.0071
     33 C         143.5881  131.9235  156.5671 C.ar    1  UNL1        0.0717
     34 C         143.9166  133.3338  156.1758 C.ar    1  UNL1        0.0099
     35 C         143.0327  134.0703  155.2135 C.ar    1  UNL1        0.0717
     36 C         144.4720  131.1869  157.5295 C.3     1  UNL1        0.4186
     37 F         145.3559  130.4502  158.4918 F       1  UNL1       -0.1659
     38 F         145.6327  132.0440  157.1195 F       1  UNL1       -0.1659
     39 F         143.3113  130.3298  157.9395 F       1  UNL1       -0.1659
@<TRIPOS>BOND
     1     1     2    2
     2     2    24    1
     3    24    25    1
     4    25    27    1
     5    27    28   ar
     6    28    29   ar
     7    29    30   ar
     8    30    31   ar
     9    31    32   ar
    10    32    33   ar
    11    33    36    1
    12    36    37    1
    13    36    38    1
    14    36    39    1
    15    33    34   ar
    16    34    35   ar
    17     2     3   am
    18     3     5    1
    19     5     6    1
    20     6     7    1
    21     9     7    1
    22     9    10    1
    23    10    11    1
    24    11    12    1
    25    12    15    1
    26    15    16   ar
    27    16    17   ar
    28    17    18   ar
    29    18    19   ar
    30    19    20   ar
    31    19    21    1
    32    21    22    1
    33    22    23    1
    34    12    13    1
    35    13    14    1
    36     7     8    1
    37    35    27   ar
    38     8     5    1
    39    35    30   ar
    40    14     9    1
    41    20    15   ar
    42    23    18    1
    43    25    26    1
    44     3     4    1
@<TRIPOS>MOLECULE
*****
 39 44 0 0 0
SMALL
GASTEIGER

@<TRIPOS>ATOM
      1 O         141.0499  139.2837  156.6291 O.2     1  UNL1       -0.2733
      2 C         142.4047  138.8910  156.1187 C.2     1  UNL1        0.2425
      3 N         143.5675  138.8106  157.0628 N.am    1  UNL1       -0.3018
      4 H         144.4566  138.5528  156.7278 H       1  UNL1        0.1495
      5 C         143.3756  139.1230  158.5173 C.3     1  UNL1        0.1035
      6 C         142.7248  138.4258  159.6750 C.3     1  UNL1        0.0933
      7 N         143.1042  139.5648  160.5743 N.3     1  UNL1       -0.2711
      8 C         143.7549  140.2621  159.4166 C.3     1  UNL1        0.0933
      9 C         142.9122  139.8772  162.0288 C.3     1  UNL1        0.0576
     10 C         141.7353  140.6952  162.4713 C.3     1  UNL1        0.0163
     11 C         141.5433  141.0075  163.9258 C.3     1  UNL1        0.0057
     12 C         142.5283  140.5020  164.9378 C.3     1  UNL1        0.0225
     13 C         143.7053  139.6840  164.4952 C.3     1  UNL1        0.0057
     14 C         143.8972  139.3716  163.0408 C.3     1  UNL1        0.0163
     15 C         142.3365  140.8143  166.3923 C.ar    1  UNL1       -0.0193
     16 C         143.0638  141.9698  167.0135 C.ar    1  UNL1       -0.0010
     17 C         142.8720  142.2822  168.4681 C.ar    1  UNL1        0.0399
     18 C         141.9530  141.4391  169.3013 C.ar    1  UNL1        0.1764
     19 C         141.2257  140.2836  168.6802 C.ar    1  UNL1        0.1761
     20 C         141.4174  139.9712  167.2257 C.ar    1  UNL1        0.0359
     21 O         140.3910  139.6351  169.7445 O.3     1  UNL1       -0.4346
     22 C         140.6024  140.3898  171.0234 C.3     1  UNL1        0.4294
     23 O         141.5678  141.5048  170.7496 O.3     1  UNL1       -0.4346
     24 C         142.5966  138.5786  154.6642 C.3     1  UNL1        0.1747
     25 N         143.2658  137.3004  154.2535 N.pl3   1  UNL1       -0.3080
     26 H         144.2234  137.2974  154.0252 H       1  UNL1        0.1487
     27 C         142.4758  136.0268  154.1908 C.ar    1  UNL1        0.1708
     28 N         141.2648  135.7814  153.3404 N.ar    1  UNL1       -0.0621
     29 O         140.7988  134.3779  153.5915 O.2     1  UNL1       -0.3522
     30 C         141.7217  133.7559  154.5972 C.ar    1  UNL1        0.1781
     31 C         141.7523  132.3933  155.2234 C.ar    1  UNL1        0.0402
     32 C         142.8193  132.0497  156.2201 C.ar    1  UNL1        0.0071
     33 C         143.8558  133.0688  156.5905 C.ar    1  UNL1        0.0717
     34 C         143.8252  134.4314  155.9642 C.ar    1  UNL1        0.0099
     35 C         142.7582  134.7750  154.9676 C.ar    1  UNL1        0.0717
     36 C         144.9228  132.7252  157.5872 C.3     1  UNL1        0.4186
     37 F         145.9898  132.3816  158.5839 F       1  UNL1       -0.1659
     38 F         144.3132  133.6810  158.5694 F       1  UNL1       -0.1659
     39 F         145.5324  131.7694  156.6050 F       1  UNL1       -0.1659
@<TRIPOS>BOND
     1     1     2    2
     2     2    24    1
     3    24    25    1
     4    25    27    1
     5    27    28   ar
     6    28    29   ar
     7    29    30   ar
     8    30    31   ar
     9    31    32   ar
    10    32    33   ar
    11    33    36    1
    12    36    37    1
    13    36    38    1
    14    36    39    1
    15    33    34   ar
    16    34    35   ar
    17     2     3   am
    18     3     5    1
    19     5     6    1
    20     6     7    1
    21     9     7    1
    22     9    10    1
    23    10    11    1
    24    11    12    1
    25    12    15    1
    26    15    16   ar
    27    16    17   ar
    28    17    18   ar
    29    18    19   ar
    30    19    20   ar
    31    19    21    1
    32    21    22    1
    33    22    23    1
    34    12    13    1
    35    13    14    1
    36     7     8    1
    37    35    27   ar
    38     8     5    1
    39    35    30   ar
    40    14     9    1
    41    20    15   ar
    42    23    18    1
    43    25    26    1
    44     3     4    1
@<TRIPOS>MOLECULE
*****
 39 44 0 0 0
SMALL
GASTEIGER

@<TRIPOS>ATOM
      1 O         140.8825  144.5060  162.7414 O.2     1  UNL1       -0.2733
      2 C         139.4907  144.4187  162.1889 C.2     1  UNL1        0.2425
      3 N         139.2753  144.0285  160.7567 N.am    1  UNL1       -0.3018
      4 H         138.3618  143.9711  160.3941 H       1  UNL1        0.1495
      5 C         140.4519  143.7256  159.8769 C.3     1  UNL1        0.1035
      6 C         141.5271  144.5432  159.2249 C.3     1  UNL1        0.0933
      7 N         142.1158  143.2971  158.6327 N.3     1  UNL1       -0.2711
      8 C         141.0406  142.4793  159.2848 C.3     1  UNL1        0.0933
      9 C         143.2924  142.9942  157.7530 C.3     1  UNL1        0.0576
     10 C         144.6180  142.6509  158.3652 C.3     1  UNL1        0.0163
     11 C         145.7945  142.3481  157.4854 C.3     1  UNL1        0.0057
     12 C         145.6455  142.3884  155.9934 C.3     1  UNL1        0.0225
     13 C         144.3197  142.7317  155.3812 C.3     1  UNL1        0.0057
     14 C         143.1433  143.0346  156.2610 C.3     1  UNL1        0.0163
     15 C         146.8219  142.0856  155.1136 C.ar    1  UNL1       -0.0193
     16 C         146.6137  141.7944  153.6569 C.ar    1  UNL1       -0.0010
     17 C         147.7901  141.4916  152.7769 C.ar    1  UNL1        0.0399
     18 C         149.1747  141.4798  153.3537 C.ar    1  UNL1        0.1764
     19 C         149.3830  141.7709  154.8103 C.ar    1  UNL1        0.1761
     20 C         148.2065  142.0738  155.6903 C.ar    1  UNL1        0.0359
     21 O         150.8535  141.6881  155.0940 O.3     1  UNL1       -0.4346
     22 C         151.5542  141.3458  153.8126 C.3     1  UNL1        0.4294
     23 O         150.5167  141.2170  152.7370 O.3     1  UNL1       -0.4346
     24 C         138.3141  144.7216  163.0687 C.3     1  UNL1        0.1747
     25 N         137.6853  143.6295  163.8825 N.pl3   1  UNL1       -0.3080
     26 H         137.1898  143.8508  164.7039 H       1  UNL1        0.1487
     27 C         137.8115  142.2004  163.4448 C.ar    1  UNL1        0.1708
     28 N         137.3942  141.6454  162.1152 N.ar    1  UNL1       -0.0621
     29 O         137.7020  140.1773  162.1085 O.2     1  UNL1       -0.3522
     30 C         138.3095  139.8250  163.4339 C.ar    1  UNL1        0.1781
     31 C         138.8098  138.5272  163.9955 C.ar    1  UNL1        0.0402
     32 C         139.3779  138.4798  165.3829 C.ar    1  UNL1        0.0071
     33 C         139.4456  139.7301  166.2088 C.ar    1  UNL1        0.0717
     34 C         138.9453  141.0279  165.6472 C.ar    1  UNL1        0.0099
     35 C         138.3772  141.0754  164.2598 C.ar    1  UNL1        0.0717
     36 C         140.0137  139.6826  167.5963 C.3     1  UNL1        0.4186
     37 F         140.5817  139.6352  168.9838 F       1  UNL1       -0.1659
     38 F         141.3997  139.7874  167.0325 F       1  UNL1       -0.1659
     39 F         138.6277  139.5779  168.1601 F       1  UNL1       -0.1659
@<TRIPOS>BOND
     1     1     2    2
     2     2    24    1
     3    24    25    1
     4    25    27    1
     5    27    28   ar
     6    28    29   ar
     7    29    30   ar
     8    30    31   ar
     9    31    32   ar
    10    32    33   ar
    11    33    36    1
    12    36    37    1
    13    36    38    1
    14    36    39    1
    15    33    34   ar
    16    34    35   ar
    17     2     3   am
    18     3     5    1
    19     5     6    1
    20     6     7    1
    21     9     7    1
    22     9    10    1
    23    10    11    1
    24    11    12    1
    25    12    15    1
    26    15    16   ar
    27    16    17   ar
    28    17    18   ar
    29    18    19   ar
    30    19    20   ar
    31    19    21    1
    32    21    22    1
    33    22    23    1
    34    12    13    1
    35    13    14    1
    36     7     8    1
    37    35    27   ar
    38     8     5    1
    39    35    30   ar
    40    14     9    1
    41    20    15   ar
    42    23    18    1
    43    25    26    1
    44     3     4    1
@<TRIPOS>MOLECULE
*****
 39 44 0 0 0
SMALL
GASTEIGER

@<TRIPOS>ATOM
      1 O         140.4630  138.0104  157.3711 O.2     1  UNL1       -0.2733
      2 C         141.7829  137.4213  156.9702 C.2     1  UNL1        0.2425
      3 N         142.9463  137.4749  157.9154 N.am    1  UNL1       -0.3018
      4 H         143.8126  137.0883  157.6522 H       1  UNL1        0.1495
      5 C         142.7898  138.1178  159.2616 C.3     1  UNL1        0.1035
      6 C         142.8975  137.6459  160.6813 C.3     1  UNL1        0.0933
      7 N         142.5684  139.0269  161.1654 N.3     1  UNL1       -0.2711
      8 C         142.4607  139.4989  159.7457 C.3     1  UNL1        0.0933
      9 C         142.4119  139.6698  162.5116 C.3     1  UNL1        0.0576
     10 C         143.6041  139.8356  163.4067 C.3     1  UNL1        0.0163
     11 C         143.4476  140.4784  164.7530 C.3     1  UNL1        0.0057
     12 C         142.0989  140.9554  165.2041 C.3     1  UNL1        0.0225
     13 C         140.9068  140.7895  164.3089 C.3     1  UNL1        0.0057
     14 C         141.0633  140.1468  162.9628 C.3     1  UNL1        0.0163
     15 C         141.9423  141.5982  166.5502 C.ar    1  UNL1       -0.0193
     16 C         140.5816  142.0040  167.0338 C.ar    1  UNL1       -0.0010
     17 C         140.4248  142.6468  168.3800 C.ar    1  UNL1        0.0399
     18 C         141.6288  142.8839  169.2426 C.ar    1  UNL1        0.1764
     19 C         142.9896  142.4782  168.7591 C.ar    1  UNL1        0.1761
     20 C         143.1463  141.8353  167.4129 C.ar    1  UNL1        0.0359
     21 O         143.9851  142.8359  169.8225 O.3     1  UNL1       -0.4346
     22 C         143.2396  143.4628  170.9633 C.3     1  UNL1        0.4294
     23 O         141.7834  143.4925  170.6049 O.3     1  UNL1       -0.4346
     24 C         141.9394  136.7785  155.6240 C.3     1  UNL1        0.1747
     25 N         141.5425  135.3454  155.4264 N.pl3   1  UNL1       -0.3080
     26 H         140.7800  135.1214  154.8453 H       1  UNL1        0.1487
     27 C         142.3073  134.2537  156.1143 C.ar    1  UNL1        0.1708
     28 N         143.3890  134.4439  157.1360 N.ar    1  UNL1       -0.0621
     29 O         143.8749  133.0878  157.5544 O.2     1  UNL1       -0.3522
     30 C         143.0935  132.0596  156.7913 C.ar    1  UNL1        0.1781
     31 C         143.1391  130.5603  156.7920 C.ar    1  UNL1        0.0402
     32 C         142.2157  129.7816  155.9026 C.ar    1  UNL1        0.0071
     33 C         141.2469  130.5022  155.0126 C.ar    1  UNL1        0.0717
     34 C         141.2014  132.0014  155.0119 C.ar    1  UNL1        0.0099
     35 C         142.1247  132.7802  155.9013 C.ar    1  UNL1        0.0717
     36 C         140.3236  129.7234  154.1232 C.3     1  UNL1        0.4186
     37 F         139.4003  128.9446  153.2338 F       1  UNL1       -0.1659
     38 F         139.4068  129.4826  155.2857 F       1  UNL1       -0.1659
     39 F         141.2403  129.9641  152.9607 F       1  UNL1       -0.1659
@<TRIPOS>BOND
     1     1     2    2
     2     2    24    1
     3    24    25    1
     4    25    27    1
     5    27    28   ar
     6    28    29   ar
     7    29    30   ar
     8    30    31   ar
     9    31    32   ar
    10    32    33   ar
    11    33    36    1
    12    36    37    1
    13    36    38    1
    14    36    39    1
    15    33    34   ar
    16    34    35   ar
    17     2     3   am
    18     3     5    1
    19     5     6    1
    20     6     7    1
    21     9     7    1
    22     9    10    1
    23    10    11    1
    24    11    12    1
    25    12    15    1
    26    15    16   ar
    27    16    17   ar
    28    17    18   ar
    29    18    19   ar
    30    19    20   ar
    31    19    21    1
    32    21    22    1
    33    22    23    1
    34    12    13    1
    35    13    14    1
    36     7     8    1
    37    35    27   ar
    38     8     5    1
    39    35    30   ar
    40    14     9    1
    41    20    15   ar
    42    23    18    1
    43    25    26    1
    44     3     4    1
@<TRIPOS>MOLECULE
*****
 39 44 0 0 0
SMALL
GASTEIGER

@<TRIPOS>ATOM
      1 O         141.7446  142.4646  158.8821 O.2     1  UNL1       -0.2733
      2 C         142.7058  142.3010  160.0220 C.2     1  UNL1        0.2425
      3 N         143.3710  140.9775  160.2581 N.am    1  UNL1       -0.3018
      4 H         144.0018  140.8701  161.0063 H       1  UNL1        0.1495
      5 C         143.0751  139.8176  159.3542 C.3     1  UNL1        0.1035
      6 C         142.4433  138.4688  159.5316 C.3     1  UNL1        0.0933
      7 N         142.6566  138.1773  158.0757 N.3     1  UNL1       -0.2711
      8 C         143.2883  139.5261  157.8982 C.3     1  UNL1        0.0933
      9 C         142.3606  137.0174  157.1718 C.3     1  UNL1        0.0576
     10 C         143.2321  135.7971  157.2078 C.3     1  UNL1        0.0163
     11 C         142.9362  134.6372  156.3039 C.3     1  UNL1        0.0057
     12 C         141.7687  134.6976  155.3639 C.3     1  UNL1        0.0225
     13 C         140.8973  135.9180  155.3280 C.3     1  UNL1        0.0057
     14 C         141.1932  137.0778  156.2319 C.3     1  UNL1        0.0163
     15 C         141.4727  133.5378  154.4600 C.ar    1  UNL1       -0.0193
     16 C         141.6948  133.6633  152.9818 C.ar    1  UNL1       -0.0010
     17 C         141.3988  132.5035  152.0777 C.ar    1  UNL1        0.0399
     18 C         140.8807  131.2183  152.6519 C.ar    1  UNL1        0.1764
     19 C         140.6586  131.0928  154.1300 C.ar    1  UNL1        0.1761
     20 C         140.9546  132.2525  155.0341 C.ar    1  UNL1        0.0359
     21 O         140.1430  129.7114  154.4056 O.3     1  UNL1       -0.4346
     22 C         140.0464  128.9832  153.0977 C.3     1  UNL1        0.4294
     23 O         140.5023  129.9145  152.0139 O.3     1  UNL1       -0.4346
     24 C         143.0017  143.4609  160.9260 C.3     1  UNL1        0.1747
     25 N         142.2566  144.7519  160.7579 N.pl3   1  UNL1       -0.3080
     26 H         142.6205  145.4583  160.1768 H       1  UNL1        0.1487
     27 C         140.9569  144.9666  161.4754 C.ar    1  UNL1        0.1708
     28 N         139.7563  145.6816  160.9301 N.ar    1  UNL1       -0.0621
     29 O         138.6871  145.6608  161.9819 O.2     1  UNL1       -0.3522
     30 C         139.2268  144.9330  163.1773 C.ar    1  UNL1        0.1781
     31 C         138.6221  144.6056  164.5103 C.ar    1  UNL1        0.0402
     32 C         139.4203  143.8490  165.5304 C.ar    1  UNL1        0.0071
     33 C         140.8231  143.4200  165.2174 C.ar    1  UNL1        0.0717
     34 C         141.4278  143.7474  163.8844 C.ar    1  UNL1        0.0099
     35 C         140.6297  144.5039  162.8643 C.ar    1  UNL1        0.0717
     36 C         141.6213  142.6634  166.2376 C.3     1  UNL1        0.4186
     37 F         142.4194  141.9069  167.2577 F       1  UNL1       -0.1659
     38 F         142.8880  143.0499  165.5332 F       1  UNL1       -0.1659
     39 F         140.3546  142.2770  166.9419 F       1  UNL1       -0.1659
@<TRIPOS>BOND
     1     1     2    2
     2     2    24    1
     3    24    25    1
     4    25    27    1
     5    27    28   ar
     6    28    29   ar
     7    29    30   ar
     8    30    31   ar
     9    31    32   ar
    10    32    33   ar
    11    33    36    1
    12    36    37    1
    13    36    38    1
    14    36    39    1
    15    33    34   ar
    16    34    35   ar
    17     2     3   am
    18     3     5    1
    19     5     6    1
    20     6     7    1
    21     9     7    1
    22     9    10    1
    23    10    11    1
    24    11    12    1
    25    12    15    1
    26    15    16   ar
    27    16    17   ar
    28    17    18   ar
    29    18    19   ar
    30    19    20   ar
    31    19    21    1
    32    21    22    1
    33    22    23    1
    34    12    13    1
    35    13    14    1
    36     7     8    1
    37    35    27   ar
    38     8     5    1
    39    35    30   ar
    40    14     9    1
    41    20    15   ar
    42    23    18    1
    43    25    26    1
    44     3     4    1
@<TRIPOS>MOLECULE
*****
 39 44 0 0 0
SMALL
GASTEIGER

@<TRIPOS>ATOM
      1 O         141.3678  139.4418  162.9697 O.2     1  UNL1       -0.2733
      2 C         139.9702  139.5840  162.4437 C.2     1  UNL1        0.2425
      3 N         139.7432  139.9852  161.0164 N.am    1  UNL1       -0.3018
      4 H         138.8259  140.0786  160.6712 H       1  UNL1        0.1495
      5 C         140.9138  140.2442  160.1149 C.3     1  UNL1        0.1035
      6 C         141.9942  139.3978  159.5098 C.3     1  UNL1        0.0933
      7 N         142.5692  140.6106  158.8400 N.3     1  UNL1       -0.2711
      8 C         141.4887  141.4570  159.4450 C.3     1  UNL1        0.0933
      9 C         143.7398  140.8695  157.9385 C.3     1  UNL1        0.0576
     10 C         144.6450  142.0364  158.2012 C.3     1  UNL1        0.0163
     11 C         145.8156  142.2954  157.2997 C.3     1  UNL1        0.0057
     12 C         146.0810  141.3875  156.1355 C.3     1  UNL1        0.0225
     13 C         145.1757  140.2206  155.8729 C.3     1  UNL1        0.0057
     14 C         144.0052  139.9617  156.7743 C.3     1  UNL1        0.0163
     15 C         147.2515  141.6464  155.2340 C.ar    1  UNL1       -0.0193
     16 C         147.0415  141.7949  153.7561 C.ar    1  UNL1       -0.0010
     17 C         148.2119  142.0538  152.8545 C.ar    1  UNL1        0.0399
     18 C         149.5924  142.1641  153.4307 C.ar    1  UNL1        0.1764
     19 C         149.8025  142.0156  154.9084 C.ar    1  UNL1        0.1761
     20 C         148.6320  141.7567  155.8101 C.ar    1  UNL1        0.0359
     21 O         151.2681  142.1725  155.1864 O.3     1  UNL1       -0.4346
     22 C         151.9639  142.4179  153.8804 C.3     1  UNL1        0.4294
     23 O         150.9283  142.4128  152.7952 O.3     1  UNL1       -0.4346
     24 C         138.7997  139.3250  163.3452 C.3     1  UNL1        0.1747
     25 N         138.8937  138.2768  164.4141 N.pl3   1  UNL1       -0.3080
     26 H         139.1161  137.3481  164.1747 H       1  UNL1        0.1487
     27 C         138.6487  138.6435  165.8478 C.ar    1  UNL1        0.1708
     28 N         137.5383  138.1255  166.7131 N.ar    1  UNL1       -0.0621
     29 O         137.6746  138.7545  168.0680 O.2     1  UNL1       -0.3522
     30 C         138.8692  139.6613  168.0401 C.ar    1  UNL1        0.1781
     31 C         139.4866  140.5405  169.0869 C.ar    1  UNL1        0.0402
     32 C         140.7060  141.3511  168.7615 C.ar    1  UNL1        0.0071
     33 C         141.3080  141.2825  167.3894 C.ar    1  UNL1        0.0717
     34 C         140.6907  140.4032  166.3426 C.ar    1  UNL1        0.0099
     35 C         139.4713  139.5926  166.6680 C.ar    1  UNL1        0.0717
     36 C         142.5275  142.0931  167.0640 C.3     1  UNL1        0.4186
     37 F         143.7469  142.9038  166.7387 F       1  UNL1       -0.1659
     38 F         143.2372  141.4994  168.2446 F       1  UNL1       -0.1659
     39 F         141.8178  142.6868  165.8835 F       1  UNL1       -0.1659
@<TRIPOS>BOND
     1     1     2    2
     2     2    24    1
     3    24    25    1
     4    25    27    1
     5    27    28   ar
     6    28    29   ar
     7    29    30   ar
     8    30    31   ar
     9    31    32   ar
    10    32    33   ar
    11    33    36    1
    12    36    37    1
    13    36    38    1
    14    36    39    1
    15    33    34   ar
    16    34    35   ar
    17     2     3   am
    18     3     5    1
    19     5     6    1
    20     6     7    1
    21     9     7    1
    22     9    10    1
    23    10    11    1
    24    11    12    1
    25    12    15    1
    26    15    16   ar
    27    16    17   ar
    28    17    18   ar
    29    18    19   ar
    30    19    20   ar
    31    19    21    1
    32    21    22    1
    33    22    23    1
    34    12    13    1
    35    13    14    1
    36     7     8    1
    37    35    27   ar
    38     8     5    1
    39    35    30   ar
    40    14     9    1
    41    20    15   ar
    42    23    18    1
    43    25    26    1
    44     3     4    1
@<TRIPOS>MOLECULE
*****
 39 44 0 0 0
SMALL
GASTEIGER

@<TRIPOS>ATOM
      1 O         137.4231  141.0466  157.1283 O.2     1  UNL1       -0.2733
      2 C         138.1889  139.9062  156.5258 C.2     1  UNL1        0.2425
      3 N         139.1249  139.0991  157.3758 N.am    1  UNL1       -0.3018
      4 H         139.6275  138.3506  156.9804 H       1  UNL1        0.1495
      5 C         139.2950  139.4325  158.8284 C.3     1  UNL1        0.1035
      6 C         138.4590  139.2586  160.0615 C.3     1  UNL1        0.0933
      7 N         139.5358  139.9040  160.8826 N.3     1  UNL1       -0.2711
      8 C         140.3719  140.0779  159.6494 C.3     1  UNL1        0.0933
      9 C         139.7059  140.2374  162.3352 C.3     1  UNL1        0.0576
     10 C         140.4237  139.2843  163.2443 C.3     1  UNL1        0.0163
     11 C         140.5938  139.6177  164.6969 C.3     1  UNL1        0.0057
     12 C         140.0462  140.9041  165.2403 C.3     1  UNL1        0.0225
     13 C         139.3284  141.8571  164.3310 C.3     1  UNL1        0.0057
     14 C         139.1583  141.5237  162.8786 C.3     1  UNL1        0.0163
     15 C         140.2163  141.2376  166.6928 C.ar    1  UNL1       -0.0193
     16 C         140.4103  142.6632  167.1172 C.ar    1  UNL1       -0.0010
     17 C         140.5804  142.9968  168.5698 C.ar    1  UNL1        0.0399
     18 C         140.5565  141.9048  169.5978 C.ar    1  UNL1        0.1764
     19 C         140.3625  140.4792  169.1734 C.ar    1  UNL1        0.1761
     20 C         140.1924  140.1456  167.7209 C.ar    1  UNL1        0.0359
     21 O         140.3828  139.6222  170.4043 O.3     1  UNL1       -0.4346
     22 C         140.5894  140.5182  171.5895 C.3     1  UNL1        0.4294
     23 O         140.6967  141.9289  171.0911 O.3     1  UNL1       -0.4346
     24 C         138.0188  139.5728  155.0733 C.3     1  UNL1        0.1747
     25 N         136.6922  139.0913  154.5646 N.pl3   1  UNL1       -0.3080
     26 H         136.5402  138.1295  154.4198 H       1  UNL1        0.1487
     27 C         135.5973  140.0754  154.2767 C.ar    1  UNL1        0.1708
     28 N         135.6287  141.1473  153.2280 N.ar    1  UNL1       -0.0621
     29 O         134.3296  141.8947  153.2902 O.2     1  UNL1       -0.3522
     30 C         133.4954  141.2846  154.3773 C.ar    1  UNL1        0.1781
     31 C         132.1236  141.6076  154.8908 C.ar    1  UNL1        0.0402
     32 C         131.5353  140.8063  156.0140 C.ar    1  UNL1        0.0071
     33 C         132.3188  139.6819  156.6238 C.ar    1  UNL1        0.0717
     34 C         133.6906  139.3588  156.1103 C.ar    1  UNL1        0.0099
     35 C         134.2789  140.1602  154.9871 C.ar    1  UNL1        0.0717
     36 C         131.7305  138.8805  157.7471 C.3     1  UNL1        0.4186
     37 F         131.1421  138.0792  158.8703 F       1  UNL1       -0.1659
     38 F         132.9754  138.0457  157.8037 F       1  UNL1       -0.1659
     39 F         130.4855  139.7152  157.6905 F       1  UNL1       -0.1659
@<TRIPOS>BOND
     1     1     2    2
     2     2    24    1
     3    24    25    1
     4    25    27    1
     5    27    28   ar
     6    28    29   ar
     7    29    30   ar
     8    30    31   ar
     9    31    32   ar
    10    32    33   ar
    11    33    36    1
    12    36    37    1
    13    36    38    1
    14    36    39    1
    15    33    34   ar
    16    34    35   ar
    17     2     3   am
    18     3     5    1
    19     5     6    1
    20     6     7    1
    21     9     7    1
    22     9    10    1
    23    10    11    1
    24    11    12    1
    25    12    15    1
    26    15    16   ar
    27    16    17   ar
    28    17    18   ar
    29    18    19   ar
    30    19    20   ar
    31    19    21    1
    32    21    22    1
    33    22    23    1
    34    12    13    1
    35    13    14    1
    36     7     8    1
    37    35    27   ar
    38     8     5    1
    39    35    30   ar
    40    14     9    1
    41    20    15   ar
    42    23    18    1
    43    25    26    1
    44     3     4    1
@<TRIPOS>MOLECULE
*****
 39 44 0 0 0
SMALL
GASTEIGER

@<TRIPOS>ATOM
      1 O         142.1493  138.6577  157.0001 O.2     1  UNL1       -0.2733
      2 C         140.8363  138.1892  156.4465 C.2     1  UNL1        0.2425
      3 N         139.6182  138.1675  157.3215 N.am    1  UNL1       -0.3018
      4 H         138.7565  137.8601  156.9581 H       1  UNL1        0.1495
      5 C         139.7132  138.6143  158.7503 C.3     1  UNL1        0.1035
      6 C         140.5804  138.2525  159.9194 C.3     1  UNL1        0.0933
      7 N         139.8474  139.2463  160.7709 N.3     1  UNL1       -0.2711
      8 C         138.9801  139.6082  159.6018 C.3     1  UNL1        0.0933
      9 C         139.9423  139.6931  162.1996 C.3     1  UNL1        0.0576
     10 C         140.9766  140.7018  162.6028 C.3     1  UNL1        0.0163
     11 C         141.0716  141.1486  164.0316 C.3     1  UNL1        0.0057
     12 C         140.1322  140.5866  165.0572 C.3     1  UNL1        0.0225
     13 C         139.0979  139.5778  164.6539 C.3     1  UNL1        0.0057
     14 C         139.0030  139.1311  163.2252 C.3     1  UNL1        0.0163
     15 C         140.2271  141.0333  166.4859 C.ar    1  UNL1       -0.0193
     16 C         140.3234  142.4948  166.8100 C.ar    1  UNL1       -0.0010
     17 C         140.4182  142.9417  168.2387 C.ar    1  UNL1        0.0399
     18 C         140.4168  141.9270  169.3434 C.ar    1  UNL1        0.1764
     19 C         140.3205  140.4656  169.0195 C.ar    1  UNL1        0.1761
     20 C         140.2256  140.0188  167.5907 C.ar    1  UNL1        0.0359
     21 O         140.3420  139.7022  170.3105 O.3     1  UNL1       -0.4346
     22 C         140.4516  140.6919  171.4324 C.3     1  UNL1        0.4294
     23 O         140.4978  142.0669  170.8348 O.3     1  UNL1       -0.4346
     24 C         140.7414  137.7424  155.0177 C.3     1  UNL1        0.1747
     25 N         141.9513  137.1930  154.3217 N.pl3   1  UNL1       -0.3080
     26 H         142.7649  137.7417  154.2420 H       1  UNL1        0.1487
     27 C         141.9216  135.8078  153.7471 C.ar    1  UNL1        0.1708
     28 N         141.2344  135.3934  152.4798 N.ar    1  UNL1       -0.0621
     29 O         141.4621  133.9232  152.2886 O.2     1  UNL1       -0.3522
     30 C         142.2899  133.4289  153.4376 C.ar    1  UNL1        0.1781
     31 C         142.8218  132.0687  153.7795 C.ar    1  UNL1        0.0402
     32 C         143.6377  131.8732  155.0229 C.ar    1  UNL1        0.0071
     33 C         143.9217  133.0380  155.9244 C.ar    1  UNL1        0.0717
     34 C         143.3899  134.3982  155.5825 C.ar    1  UNL1        0.0099
     35 C         142.5740  134.5936  154.3391 C.ar    1  UNL1        0.0717
     36 C         144.7377  132.8425  157.1678 C.3     1  UNL1        0.4186
     37 F         145.5536  132.6471  158.4112 F       1  UNL1       -0.1659
     38 F         145.5652  131.8092  156.4624 F       1  UNL1       -0.1659
     39 F         143.9103  133.8758  157.8732 F       1  UNL1       -0.1659
@<TRIPOS>BOND
     1     1     2    2
     2     2    24    1
     3    24    25    1
     4    25    27    1
     5    27    28   ar
     6    28    29   ar
     7    29    30   ar
     8    30    31   ar
     9    31    32   ar
    10    32    33   ar
    11    33    36    1
    12    36    37    1
    13    36    38    1
    14    36    39    1
    15    33    34   ar
    16    34    35   ar
    17     2     3   am
    18     3     5    1
    19     5     6    1
    20     6     7    1
    21     9     7    1
    22     9    10    1
    23    10    11    1
    24    11    12    1
    25    12    15    1
    26    15    16   ar
    27    16    17   ar
    28    17    18   ar
    29    18    19   ar
    30    19    20   ar
    31    19    21    1
    32    21    22    1
    33    22    23    1
    34    12    13    1
    35    13    14    1
    36     7     8    1
    37    35    27   ar
    38     8     5    1
    39    35    30   ar
    40    14     9    1
    41    20    15   ar
    42    23    18    1
    43    25    26    1
    44     3     4    1
@<TRIPOS>MOLECULE
*****
 39 44 0 0 0
SMALL
GASTEIGER

@<TRIPOS>ATOM
      1 O         139.3323  138.3941  164.5445 O.2     1  UNL1       -0.2733
      2 C         138.6976  139.5809  165.2067 C.2     1  UNL1        0.2425
      3 N         138.9289  140.9581  164.6591 N.am    1  UNL1       -0.3018
      4 H         138.5123  141.7370  165.0938 H       1  UNL1        0.1495
      5 C         139.7950  141.1484  163.4493 C.3     1  UNL1        0.1035
      6 C         139.7259  140.7116  162.0160 C.3     1  UNL1        0.0933
      7 N         141.0199  141.4176  161.7384 N.3     1  UNL1       -0.2711
      8 C         141.0891  141.8545  163.1717 C.3     1  UNL1        0.0933
      9 C         141.8860  141.6080  160.5286 C.3     1  UNL1        0.0576
     10 C         142.9774  140.6247  160.2253 C.3     1  UNL1        0.0163
     11 C         143.8435  140.8150  159.0154 C.3     1  UNL1        0.0057
     12 C         143.6182  141.9886  158.1089 C.3     1  UNL1        0.0225
     13 C         142.5267  142.9719  158.4123 C.3     1  UNL1        0.0057
     14 C         141.6607  142.7816  159.6220 C.3     1  UNL1        0.0163
     15 C         144.4842  142.1790  156.8991 C.ar    1  UNL1       -0.0193
     16 C         143.8918  142.7155  155.6297 C.ar    1  UNL1       -0.0010
     17 C         144.7577  142.9059  154.4197 C.ar    1  UNL1        0.0399
     18 C         146.2160  142.5600  154.4793 C.ar    1  UNL1        0.1764
     19 C         146.8084  142.0236  155.7486 C.ar    1  UNL1        0.1761
     20 C         145.9425  141.8331  156.9586 C.ar    1  UNL1        0.0359
     21 O         148.2677  141.7724  155.5092 O.3     1  UNL1       -0.4346
     22 C         148.5772  142.1536  154.0918 C.3     1  UNL1        0.4294
     23 O         147.3092  142.6404  153.4553 O.3     1  UNL1       -0.4346
     24 C         137.8315  139.3906  166.4165 C.3     1  UNL1        0.1747
     25 N         138.4298  138.8824  167.6948 N.pl3   1  UNL1       -0.3080
     26 H         138.4349  137.9167  167.8861 H       1  UNL1        0.1487
     27 C         139.0202  139.8457  168.6815 C.ar    1  UNL1        0.1708
     28 N         138.4686  140.1662  170.0390 N.ar    1  UNL1       -0.0621
     29 O         139.3735  141.1761  170.6804 O.2     1  UNL1       -0.3522
     30 C         140.4842  141.4798  169.7191 C.ar    1  UNL1        0.1781
     31 C         141.6663  142.3989  169.8092 C.ar    1  UNL1        0.0402
     32 C         142.6300  142.4956  168.6639 C.ar    1  UNL1        0.0071
     33 C         142.4117  141.6734  167.4285 C.ar    1  UNL1        0.0717
     34 C         141.2296  140.7543  167.3384 C.ar    1  UNL1        0.0099
     35 C         140.2659  140.6576  168.4837 C.ar    1  UNL1        0.0717
     36 C         143.3754  141.7702  166.2831 C.3     1  UNL1        0.4186
     37 F         144.3392  141.8670  165.1377 F       1  UNL1       -0.1659
     38 F         143.9507  143.0235  166.8730 F       1  UNL1       -0.1659
     39 F         142.8001  140.5168  165.6931 F       1  UNL1       -0.1659
@<TRIPOS>BOND
     1     1     2    2
     2     2    24    1
     3    24    25    1
     4    25    27    1
     5    27    28   ar
     6    28    29   ar
     7    29    30   ar
     8    30    31   ar
     9    31    32   ar
    10    32    33   ar
    11    33    36    1
    12    36    37    1
    13    36    38    1
    14    36    39    1
    15    33    34   ar
    16    34    35   ar
    17     2     3   am
    18     3     5    1
    19     5     6    1
    20     6     7    1
    21     9     7    1
    22     9    10    1
    23    10    11    1
    24    11    12    1
    25    12    15    1
    26    15    16   ar
    27    16    17   ar
    28    17    18   ar
    29    18    19   ar
    30    19    20   ar
    31    19    21    1
    32    21    22    1
    33    22    23    1
    34    12    13    1
    35    13    14    1
    36     7     8    1
    37    35    27   ar
    38     8     5    1
    39    35    30   ar
    40    14     9    1
    41    20    15   ar
    42    23    18    1
    43    25    26    1
    44     3     4    1
