@<TRIPOS>MOLECULE
*****
 37 40 0 0 0
SMALL
GASTEIGER

@<TRIPOS>ATOM
      1 N         142.2745  137.3920  157.3192 N.am    1  UNL1       -0.3018
      2 C         143.2386  138.1551  156.4601 C.2     1  UNL1        0.2426
      3 O         144.0716  139.2500  157.0579 O.2     1  UNL1       -0.2733
      4 H         141.7277  136.6734  156.9269 H       1  UNL1        0.1495
      5 N         141.9581  138.1928  160.8367 N.3     1  UNL1       -0.2711
      6 C         141.1188  138.4276  159.6157 C.3     1  UNL1        0.0933
      7 C         142.1434  137.7237  158.7762 C.3     1  UNL1        0.1035
      8 C         142.9827  137.4890  159.9971 C.3     1  UNL1        0.0933
      9 C         141.5649  139.1880  165.2076 C.3     1  UNL1        0.0224
     10 C         142.2328  140.1549  164.2754 C.3     1  UNL1        0.0057
     11 C         142.3639  139.8231  162.8184 C.3     1  UNL1        0.0163
     12 C         141.8270  138.5246  162.2936 C.3     1  UNL1        0.0576
     13 C         141.1591  137.5577  163.2258 C.3     1  UNL1        0.0163
     14 C         141.0280  137.8894  164.6828 C.3     1  UNL1        0.0057
     15 C         141.1717  140.1832  169.5785 C.ar    1  UNL1        0.1387
     16 C         139.9832  140.3055  168.6716 C.ar    1  UNL1        0.0366
     17 C         140.1143  139.9738  167.2146 C.ar    1  UNL1       -0.0012
     18 C         141.4338  139.5197  166.6646 C.ar    1  UNL1       -0.0223
     19 C         142.6223  139.3974  167.5715 C.ar    1  UNL1       -0.0012
     20 C         142.4912  139.7291  169.0284 C.ar    1  UNL1        0.0366
     21 C         140.8839  141.9424  171.4685 C.3     1  UNL1        0.2525
     22 O         141.0406  140.5149  171.0355 O.3     1  UNL1       -0.4714
     23 C         143.3696  137.8234  155.0031 C.3     1  UNL1        0.1759
     24 N         143.5480  136.3979  154.5715 N.am    1  UNL1       -0.2931
     25 C         142.3739  135.4643  154.5630 C.2     1  UNL1        0.2462
     26 O         141.0215  135.9563  154.9861 O.2     1  UNL1       -0.2701
     27 H         144.4356  136.0750  154.2939 H       1  UNL1        0.1502
     28 C         142.5523  134.0389  154.1315 C.ar    1  UNL1        0.0533
     29 C         141.9679  133.5699  152.8320 C.ar    1  UNL1        0.0045
     30 C         142.1463  132.1445  152.4005 C.ar    1  UNL1        0.0001
     31 C         142.9089  131.1879  153.2684 C.ar    1  UNL1        0.0039
     32 C         143.4932  131.6568  154.5679 C.ar    1  UNL1        0.0716
     33 C         143.3149  133.0823  154.9995 C.ar    1  UNL1        0.0084
     34 C         144.2559  130.7002  155.4359 C.3     1  UNL1        0.4186
     35 F         145.0185  129.7437  156.3038 F       1  UNL1       -0.1659
     36 F         143.3597  129.5825  154.9914 F       1  UNL1       -0.1659
     37 F         145.1520  131.8180  155.8803 F       1  UNL1       -0.1659
@<TRIPOS>BOND
     1    21    22    1
     2    22    15    1
     3    15    16   ar
     4    16    17   ar
     5    17    18   ar
     6     9    18    1
     7     9    10    1
     8    10    11    1
     9    11    12    1
    10    12     5    1
    11     5     6    1
    12     6     7    1
    13     7     1    1
    14     1     2   am
    15     2     3    2
    16     2    23    1
    17    23    24    1
    18    24    25   am
    19    25    26    2
    20    25    28    1
    21    28    29   ar
    22    29    30   ar
    23    30    31   ar
    24    31    32   ar
    25    32    34    1
    26    34    35    1
    27    34    36    1
    28    34    37    1
    29    32    33   ar
    30     7     8    1
    31    12    13    1
    32    13    14    1
    33    18    19   ar
    34    19    20   ar
    35    20    15   ar
    36    14     9    1
    37     8     5    1
    38    33    28   ar
    39     1     4    1
    40    24    27    1
@<TRIPOS>MOLECULE
*****
 37 40 0 0 0
SMALL
GASTEIGER

@<TRIPOS>ATOM
      1 N         140.7499  139.9734  162.6631 N.am    1  UNL1       -0.3018
      2 C         140.4346  138.5329  162.9380 C.2     1  UNL1        0.2426
      3 O         141.0731  137.4548  162.1134 O.2     1  UNL1       -0.2733
      4 H         140.3308  140.6810  163.2043 H       1  UNL1        0.1495
      5 N         143.0527  140.8482  160.0087 N.3     1  UNL1       -0.2711
      6 C         141.5763  141.0015  160.2255 C.3     1  UNL1        0.0933
      7 C         141.7037  140.3358  161.5636 C.3     1  UNL1        0.1035
      8 C         143.1800  140.1825  161.3469 C.3     1  UNL1        0.0933
      9 C         145.9142  141.9354  156.7103 C.3     1  UNL1        0.0224
     10 C         145.7894  142.8185  157.9163 C.3     1  UNL1        0.0057
     11 C         144.8356  142.4561  159.0158 C.3     1  UNL1        0.0163
     12 C         144.0065  141.2106  158.9093 C.3     1  UNL1        0.0576
     13 C         144.1313  140.3275  157.7032 C.3     1  UNL1        0.0163
     14 C         145.0852  140.6899  156.6038 C.3     1  UNL1        0.0057
     15 C         148.7758  143.0225  153.4119 C.ar    1  UNL1        0.1387
     16 C         147.3946  143.6072  153.4295 C.ar    1  UNL1        0.0366
     17 C         146.4408  143.2448  154.5290 C.ar    1  UNL1       -0.0012
     18 C         146.8681  142.2977  155.6108 C.ar    1  UNL1       -0.0223
     19 C         148.2493  141.7130  155.5932 C.ar    1  UNL1       -0.0012
     20 C         149.2031  142.0754  154.4937 C.ar    1  UNL1        0.0366
     21 C         151.1840  143.5885  152.6180 C.3     1  UNL1        0.2525
     22 O         149.7297  143.3848  152.3124 O.3     1  UNL1       -0.4714
     23 C         139.4807  138.1706  164.0375 C.3     1  UNL1        0.1759
     24 N         139.8183  138.4987  165.4617 N.am    1  UNL1       -0.2931
     25 C         139.5862  139.8843  165.9874 C.2     1  UNL1        0.2462
     26 O         139.0166  140.9417  165.0888 O.2     1  UNL1       -0.2701
     27 H         140.1922  137.8047  166.0515 H       1  UNL1        0.1502
     28 C         139.9238  140.2125  167.4116 C.ar    1  UNL1        0.0533
     29 C         138.9143  139.9754  168.4954 C.ar    1  UNL1        0.0045
     30 C         139.2518  140.3036  169.9196 C.ar    1  UNL1        0.0001
     31 C         140.5989  140.8688  170.2600 C.ar    1  UNL1        0.0039
     32 C         141.6085  141.1059  169.1762 C.ar    1  UNL1        0.0716
     33 C         141.2709  140.7777  167.7519 C.ar    1  UNL1        0.0084
     34 C         142.9555  141.6711  169.5166 C.3     1  UNL1        0.4186
     35 F         144.3026  142.2363  169.8570 F       1  UNL1       -0.1659
     36 F         143.4312  140.3028  169.9061 F       1  UNL1       -0.1659
     37 F         142.4799  143.0393  169.1271 F       1  UNL1       -0.1659
@<TRIPOS>BOND
     1    21    22    1
     2    22    15    1
     3    15    16   ar
     4    16    17   ar
     5    17    18   ar
     6     9    18    1
     7     9    10    1
     8    10    11    1
     9    11    12    1
    10    12     5    1
    11     5     6    1
    12     6     7    1
    13     7     1    1
    14     1     2   am
    15     2     3    2
    16     2    23    1
    17    23    24    1
    18    24    25   am
    19    25    26    2
    20    25    28    1
    21    28    29   ar
    22    29    30   ar
    23    30    31   ar
    24    31    32   ar
    25    32    34    1
    26    34    35    1
    27    34    36    1
    28    34    37    1
    29    32    33   ar
    30     7     8    1
    31    12    13    1
    32    13    14    1
    33    18    19   ar
    34    19    20   ar
    35    20    15   ar
    36    14     9    1
    37     8     5    1
    38    33    28   ar
    39     1     4    1
    40    24    27    1
@<TRIPOS>MOLECULE
*****
 37 40 0 0 0
SMALL
GASTEIGER

@<TRIPOS>ATOM
      1 N         140.3576  140.8361  157.5258 N.am    1  UNL1       -0.3018
      2 C         138.8840  141.1090  157.5869 C.2     1  UNL1        0.2426
      3 O         137.9058  140.0293  157.2294 O.2     1  UNL1       -0.2733
      4 H         140.9996  141.5447  157.7604 H       1  UNL1        0.1495
      5 N         141.5541  137.5709  156.5155 N.3     1  UNL1       -0.2711
      6 C         140.6754  138.0843  157.6175 C.3     1  UNL1        0.0933
      7 C         140.8532  139.4836  157.1073 C.3     1  UNL1        0.1035
      8 C         141.7320  138.9702  156.0054 C.3     1  UNL1        0.0933
      9 C         143.0409  133.5134  155.2601 C.3     1  UNL1        0.0224
     10 C         143.7555  134.2735  156.3378 C.3     1  UNL1        0.0057
     11 C         143.2599  135.6260  156.7563 C.3     1  UNL1        0.0163
     12 C         142.0497  136.2184  156.0971 C.3     1  UNL1        0.0576
     13 C         141.3352  135.4582  155.0194 C.3     1  UNL1        0.0163
     14 C         141.8308  134.1057  154.6009 C.3     1  UNL1        0.0057
     15 C         144.5278  129.4559  154.0047 C.ar    1  UNL1        0.1387
     16 C         143.6664  130.2594  153.0761 C.ar    1  UNL1        0.0366
     17 C         143.1708  131.6119  153.4945 C.ar    1  UNL1       -0.0012
     18 C         143.5365  132.1609  154.8417 C.ar    1  UNL1       -0.0223
     19 C         144.3979  131.3574  155.7703 C.ar    1  UNL1       -0.0012
     20 C         144.8935  130.0049  155.3519 C.ar    1  UNL1        0.0366
     21 C         144.8251  126.9203  154.4868 C.3     1  UNL1        0.2525
     22 O         145.0234  128.1034  153.5863 O.3     1  UNL1       -0.4714
     23 C         138.3884  142.4615  158.0053 C.3     1  UNL1        0.1759
     24 N         138.6343  142.9514  159.4016 N.am    1  UNL1       -0.2931
     25 C         139.9604  143.5523  159.7629 C.2     1  UNL1        0.2462
     26 O         141.0404  143.6633  158.7279 O.2     1  UNL1       -0.2701
     27 H         137.9254  142.8785  160.0809 H       1  UNL1        0.1502
     28 C         140.2064  144.0422  161.1591 C.ar    1  UNL1        0.0533
     29 C         141.5738  144.5114  161.5593 C.ar    1  UNL1        0.0045
     30 C         141.8198  145.0013  162.9555 C.ar    1  UNL1        0.0001
     31 C         140.6984  145.0220  163.9516 C.ar    1  UNL1        0.0039
     32 C         139.3311  144.5528  163.5514 C.ar    1  UNL1        0.0716
     33 C         139.0850  144.0629  162.1552 C.ar    1  UNL1        0.0084
     34 C         138.2097  144.5736  164.5475 C.3     1  UNL1        0.4186
     35 F         137.0883  144.5943  165.5435 F       1  UNL1       -0.1659
     36 F         137.2321  144.2615  163.4534 F       1  UNL1       -0.1659
     37 F         139.1873  144.8856  165.6416 F       1  UNL1       -0.1659
@<TRIPOS>BOND
     1    21    22    1
     2    22    15    1
     3    15    16   ar
     4    16    17   ar
     5    17    18   ar
     6     9    18    1
     7     9    10    1
     8    10    11    1
     9    11    12    1
    10    12     5    1
    11     5     6    1
    12     6     7    1
    13     7     1    1
    14     1     2   am
    15     2     3    2
    16     2    23    1
    17    23    24    1
    18    24    25   am
    19    25    26    2
    20    25    28    1
    21    28    29   ar
    22    29    30   ar
    23    30    31   ar
    24    31    32   ar
    25    32    34    1
    26    34    35    1
    27    34    36    1
    28    34    37    1
    29    32    33   ar
    30     7     8    1
    31    12    13    1
    32    13    14    1
    33    18    19   ar
    34    19    20   ar
    35    20    15   ar
    36    14     9    1
    37     8     5    1
    38    33    28   ar
    39     1     4    1
    40    24    27    1
@<TRIPOS>MOLECULE
*****
 37 40 0 0 0
SMALL
GASTEIGER

@<TRIPOS>ATOM
      1 N         140.5600  142.1055  161.4433 N.am    1  UNL1       -0.3018
      2 C         141.7273  142.9375  161.8849 C.2     1  UNL1        0.2426
      3 O         143.0963  142.6589  161.3387 O.2     1  UNL1       -0.2733
      4 H         139.6615  142.2884  161.8018 H       1  UNL1        0.1495
      5 N         141.0467  139.4243  159.0583 N.3     1  UNL1       -0.2711
      6 C         140.5606  139.5086  160.4750 C.3     1  UNL1        0.0933
      7 C         140.7616  140.9949  160.4554 C.3     1  UNL1        0.1035
      8 C         141.2476  140.9107  159.0388 C.3     1  UNL1        0.0933
      9 C         141.6514  136.0924  156.0947 C.3     1  UNL1        0.0224
     10 C         140.3349  136.8083  156.1601 C.3     1  UNL1        0.0057
     11 C         140.1333  137.9189  157.1479 C.3     1  UNL1        0.0163
     12 C         141.2482  138.3137  158.0705 C.3     1  UNL1        0.0576
     13 C         142.5647  137.5978  158.0051 C.3     1  UNL1        0.0163
     14 C         142.7663  136.4872  157.0172 C.3     1  UNL1        0.0057
     15 C         142.2561  132.7606  153.1311 C.ar    1  UNL1        0.1387
     16 C         142.4727  132.5114  154.5943 C.ar    1  UNL1        0.0366
     17 C         142.2711  133.6220  155.5822 C.ar    1  UNL1       -0.0012
     18 C         141.8530  134.9818  155.1068 C.ar    1  UNL1       -0.0223
     19 C         141.6364  135.2310  153.6437 C.ar    1  UNL1       -0.0012
     20 C         141.8380  134.1204  152.6558 C.ar    1  UNL1        0.0366
     21 C         143.6028  130.6957  152.3109 C.3     1  UNL1        0.2525
     22 O         142.4577  131.6499  152.1432 O.3     1  UNL1       -0.4714
     23 C         141.5258  144.0481  162.8728 C.3     1  UNL1        0.1759
     24 N         141.9039  143.8505  164.3109 N.am    1  UNL1       -0.2931
     25 C         141.1494  142.8678  165.1566 C.2     1  UNL1        0.2462
     26 O         140.0168  142.0827  164.5641 O.2     1  UNL1       -0.2701
     27 H         142.6472  144.3658  164.6997 H       1  UNL1        0.1502
     28 C         141.5275  142.6702  166.5946 C.ar    1  UNL1        0.0533
     29 C         142.8794  142.1237  166.9464 C.ar    1  UNL1        0.0045
     30 C         143.2575  141.9261  168.3844 C.ar    1  UNL1        0.0001
     31 C         142.2837  142.2750  169.4707 C.ar    1  UNL1        0.0039
     32 C         140.9318  142.8215  169.1190 C.ar    1  UNL1        0.0716
     33 C         140.5537  143.0191  167.6809 C.ar    1  UNL1        0.0084
     34 C         139.9581  143.1704  170.2052 C.3     1  UNL1        0.4186
     35 F         138.9843  143.5192  171.2915 F       1  UNL1       -0.1659
     36 F         140.5006  144.5683  170.2426 F       1  UNL1       -0.1659
     37 F         139.4156  141.7724  170.1679 F       1  UNL1       -0.1659
@<TRIPOS>BOND
     1    21    22    1
     2    22    15    1
     3    15    16   ar
     4    16    17   ar
     5    17    18   ar
     6     9    18    1
     7     9    10    1
     8    10    11    1
     9    11    12    1
    10    12     5    1
    11     5     6    1
    12     6     7    1
    13     7     1    1
    14     1     2   am
    15     2     3    2
    16     2    23    1
    17    23    24    1
    18    24    25   am
    19    25    26    2
    20    25    28    1
    21    28    29   ar
    22    29    30   ar
    23    30    31   ar
    24    31    32   ar
    25    32    34    1
    26    34    35    1
    27    34    36    1
    28    34    37    1
    29    32    33   ar
    30     7     8    1
    31    12    13    1
    32    13    14    1
    33    18    19   ar
    34    19    20   ar
    35    20    15   ar
    36    14     9    1
    37     8     5    1
    38    33    28   ar
    39     1     4    1
    40    24    27    1
@<TRIPOS>MOLECULE
*****
 37 40 0 0 0
SMALL
GASTEIGER

@<TRIPOS>ATOM
      1 N         142.3084  137.7208  157.0013 N.am    1  UNL1       -0.3018
      2 C         143.3818  138.4052  156.2079 C.2     1  UNL1        0.2426
      3 O         144.3185  139.3627  156.8831 O.2     1  UNL1       -0.2733
      4 H         141.6937  137.0924  156.5581 H       1  UNL1        0.1495
      5 N         141.9782  138.3803  160.5467 N.3     1  UNL1       -0.2711
      6 C         142.9692  137.6472  159.6919 C.3     1  UNL1        0.0933
      7 C         142.1716  137.9940  158.4698 C.3     1  UNL1        0.1035
      8 C         141.1806  138.7270  159.3245 C.3     1  UNL1        0.0933
      9 C         141.5677  139.1997  164.9524 C.3     1  UNL1        0.0224
     10 C         141.1961  137.8548  164.4018 C.3     1  UNL1        0.0057
     11 C         141.3330  137.5816  162.9333 C.3     1  UNL1        0.0163
     12 C         141.8413  138.6534  162.0152 C.3     1  UNL1        0.0576
     13 C         142.2129  139.9983  162.5658 C.3     1  UNL1        0.0163
     14 C         142.0761  140.2714  164.0343 C.3     1  UNL1        0.0057
     15 C         141.1573  140.0191  169.3580 C.ar    1  UNL1        0.1387
     16 C         142.4729  139.5644  168.7991 C.ar    1  UNL1        0.0366
     17 C         142.6097  139.2912  167.3306 C.ar    1  UNL1       -0.0012
     18 C         141.4309  139.4728  166.4209 C.ar    1  UNL1       -0.0223
     19 C         140.1153  139.9275  166.9799 C.ar    1  UNL1       -0.0012
     20 C         139.9785  140.2006  168.4484 C.ar    1  UNL1        0.0366
     21 C         140.9164  141.7048  171.3202 C.3     1  UNL1        0.2525
     22 O         141.0205  140.2922  170.8266 O.3     1  UNL1       -0.4714
     23 C         143.5187  138.1321  154.7394 C.3     1  UNL1        0.1759
     24 N         142.8451  136.9368  154.1329 N.am    1  UNL1       -0.2931
     25 C         143.1339  135.5637  154.6633 C.2     1  UNL1        0.2462
     26 O         144.0962  135.3859  155.8001 O.2     1  UNL1       -0.2701
     27 H         142.2135  137.0535  153.3867 H       1  UNL1        0.1502
     28 C         142.4605  134.3685  154.0568 C.ar    1  UNL1        0.0533
     29 C         141.8046  134.4789  152.7123 C.ar    1  UNL1        0.0045
     30 C         141.1311  133.2837  152.1059 C.ar    1  UNL1        0.0001
     31 C         141.1135  131.9780  152.8439 C.ar    1  UNL1        0.0039
     32 C         141.7693  131.8674  154.1884 C.ar    1  UNL1        0.0716
     33 C         142.4428  133.0627  154.7949 C.ar    1  UNL1        0.0084
     34 C         141.7517  130.5617  154.9264 C.3     1  UNL1        0.4186
     35 F         141.7340  129.2559  155.6645 F       1  UNL1       -0.1659
     36 F         142.0095  131.2862  156.2143 F       1  UNL1       -0.1659
     37 F         141.4938  129.8372  153.6385 F       1  UNL1       -0.1659
@<TRIPOS>BOND
     1    21    22    1
     2    22    15    1
     3    15    16   ar
     4    16    17   ar
     5    17    18   ar
     6     9    18    1
     7     9    10    1
     8    10    11    1
     9    11    12    1
    10    12     5    1
    11     5     6    1
    12     6     7    1
    13     7     1    1
    14     1     2   am
    15     2     3    2
    16     2    23    1
    17    23    24    1
    18    24    25   am
    19    25    26    2
    20    25    28    1
    21    28    29   ar
    22    29    30   ar
    23    30    31   ar
    24    31    32   ar
    25    32    34    1
    26    34    35    1
    27    34    36    1
    28    34    37    1
    29    32    33   ar
    30     7     8    1
    31    12    13    1
    32    13    14    1
    33    18    19   ar
    34    19    20   ar
    35    20    15   ar
    36    14     9    1
    37     8     5    1
    38    33    28   ar
    39     1     4    1
    40    24    27    1
@<TRIPOS>MOLECULE
*****
 37 40 0 0 0
SMALL
GASTEIGER

@<TRIPOS>ATOM
      1 N         140.3497  140.9455  158.1825 N.am    1  UNL1       -0.3018
      2 C         138.8770  141.2138  158.2778 C.2     1  UNL1        0.2426
      3 O         137.8940  140.1491  157.8901 O.2     1  UNL1       -0.2733
      4 H         140.9948  141.6443  158.4370 H       1  UNL1        0.1495
      5 N         141.5323  137.7274  157.0166 N.3     1  UNL1       -0.2711
      6 C         140.9843  138.9585  156.3575 C.3     1  UNL1        0.0933
      7 C         140.8395  139.6125  157.6996 C.3     1  UNL1        0.1035
      8 C         141.3875  138.3816  158.3587 C.3     1  UNL1        0.0933
      9 C         143.0018  133.7285  155.5678 C.3     1  UNL1        0.0224
     10 C         143.7176  134.4315  156.6829 C.3     1  UNL1        0.0057
     11 C         143.2277  135.7645  157.1658 C.3     1  UNL1        0.0163
     12 C         142.0221  136.3945  156.5337 C.3     1  UNL1        0.0576
     13 C         141.3063  135.6914  155.4187 C.3     1  UNL1        0.0163
     14 C         141.7961  134.3584  154.9358 C.3     1  UNL1        0.0057
     15 C         144.4713  129.7296  154.1191 C.ar    1  UNL1        0.1387
     16 C         144.9194  130.2559  155.4502 C.ar    1  UNL1        0.0366
     17 C         144.4296  131.5889  155.9332 C.ar    1  UNL1       -0.0012
     18 C         143.4916  132.3955  155.0849 C.ar    1  UNL1       -0.0223
     19 C         143.0435  131.8691  153.7538 C.ar    1  UNL1       -0.0012
     20 C         143.5333  130.5361  153.2708 C.ar    1  UNL1        0.0366
     21 C         145.8387  127.5564  154.5158 C.3     1  UNL1        0.2525
     22 O         144.9611  128.3966  153.6361 O.3     1  UNL1       -0.4714
     23 C         138.3872  142.5468  158.7607 C.3     1  UNL1        0.1759
     24 N         138.2741  142.8162  160.2320 N.am    1  UNL1       -0.2931
     25 C         139.4965  143.1710  161.0256 C.2     1  UNL1        0.2462
     26 O         140.8320  143.2565  160.3479 O.2     1  UNL1       -0.2701
     27 H         137.3976  142.7601  160.6768 H       1  UNL1        0.1502
     28 C         139.3835  143.4404  162.4968 C.ar    1  UNL1        0.0533
     29 C         138.1627  144.1193  163.0434 C.ar    1  UNL1        0.0045
     30 C         138.0496  144.3887  164.5147 C.ar    1  UNL1        0.0001
     31 C         139.1574  143.9791  165.4394 C.ar    1  UNL1        0.0039
     32 C         140.3782  143.3002  164.8929 C.ar    1  UNL1        0.0716
     33 C         140.4912  143.0308  163.4216 C.ar    1  UNL1        0.0084
     34 C         141.4859  142.8907  165.8176 C.3     1  UNL1        0.4186
     35 F         142.5937  142.4811  166.7424 F       1  UNL1       -0.1659
     36 F         140.5855  143.1159  166.9960 F       1  UNL1       -0.1659
     37 F         142.3863  142.6654  164.6393 F       1  UNL1       -0.1659
@<TRIPOS>BOND
     1    21    22    1
     2    22    15    1
     3    15    16   ar
     4    16    17   ar
     5    17    18   ar
     6     9    18    1
     7     9    10    1
     8    10    11    1
     9    11    12    1
    10    12     5    1
    11     5     6    1
    12     6     7    1
    13     7     1    1
    14     1     2   am
    15     2     3    2
    16     2    23    1
    17    23    24    1
    18    24    25   am
    19    25    26    2
    20    25    28    1
    21    28    29   ar
    22    29    30   ar
    23    30    31   ar
    24    31    32   ar
    25    32    34    1
    26    34    35    1
    27    34    36    1
    28    34    37    1
    29    32    33   ar
    30     7     8    1
    31    12    13    1
    32    13    14    1
    33    18    19   ar
    34    19    20   ar
    35    20    15   ar
    36    14     9    1
    37     8     5    1
    38    33    28   ar
    39     1     4    1
    40    24    27    1
@<TRIPOS>MOLECULE
*****
 37 40 0 0 0
SMALL
GASTEIGER

@<TRIPOS>ATOM
      1 N         141.5711  137.9773  157.1061 N.am    1  UNL1       -0.3018
      2 C         142.8569  138.3051  156.4066 C.2     1  UNL1        0.2426
      3 O         143.9388  139.0465  157.1346 O.2     1  UNL1       -0.2733
      4 H         140.8610  137.4907  156.6283 H       1  UNL1        0.1495
      5 N         141.0786  138.9760  160.5519 N.3     1  UNL1       -0.2711
      6 C         142.1895  138.3208  159.7859 C.3     1  UNL1        0.0933
      7 C         141.3671  138.3910  158.5334 C.3     1  UNL1        0.1035
      8 C         140.2562  139.0461  159.2994 C.3     1  UNL1        0.0933
      9 C         140.4667  140.2170  164.8339 C.3     1  UNL1        0.0224
     10 C         139.9297  138.9028  164.3499 C.3     1  UNL1        0.0057
     11 C         140.1337  138.4891  162.9225 C.3     1  UNL1        0.0163
     12 C         140.8746  139.3897  161.9792 C.3     1  UNL1        0.0576
     13 C         141.4116  140.7039  162.4633 C.3     1  UNL1        0.0163
     14 C         141.2077  141.1176  163.8906 C.3     1  UNL1        0.0057
     15 C         139.8547  141.4580  169.1159 C.ar    1  UNL1        0.1387
     16 C         140.5823  142.3654  168.1687 C.ar    1  UNL1        0.0366
     17 C         140.7863  141.9517  166.7414 C.ar    1  UNL1       -0.0012
     18 C         140.2627  140.6307  166.2612 C.ar    1  UNL1       -0.0223
     19 C         139.5351  139.7233  167.2084 C.ar    1  UNL1       -0.0012
     20 C         139.3312  140.1369  168.6358 C.ar    1  UNL1        0.0366
     21 C         140.8323  142.0363  171.4525 C.3     1  UNL1        0.2525
     22 O         139.6508  141.8717  170.5432 O.3     1  UNL1       -0.4714
     23 C         143.0609  137.8914  154.9793 C.3     1  UNL1        0.1759
     24 N         143.3507  136.4573  154.6482 N.am    1  UNL1       -0.2931
     25 C         142.2566  135.4341  154.7246 C.2     1  UNL1        0.2462
     26 O         140.8727  135.8448  155.1321 O.2     1  UNL1       -0.2701
     27 H         144.2591  136.1878  154.3807 H       1  UNL1        0.1502
     28 C         142.5464  134.0001  154.3935 C.ar    1  UNL1        0.0533
     29 C         142.1398  133.4407  153.0623 C.ar    1  UNL1        0.0045
     30 C         142.4296  132.0067  152.7312 C.ar    1  UNL1        0.0001
     31 C         143.1260  131.1321  153.7312 C.ar    1  UNL1        0.0039
     32 C         143.5327  131.6914  155.0622 C.ar    1  UNL1        0.0716
     33 C         143.2429  133.1254  155.3934 C.ar    1  UNL1        0.0084
     34 C         144.2291  130.8167  156.0622 C.3     1  UNL1        0.4186
     35 F         144.9256  129.9420  157.0621 F       1  UNL1       -0.1659
     36 F         145.2167  130.4024  155.0119 F       1  UNL1       -0.1659
     37 F         143.2415  131.2310  157.1124 F       1  UNL1       -0.1659
@<TRIPOS>BOND
     1    21    22    1
     2    22    15    1
     3    15    16   ar
     4    16    17   ar
     5    17    18   ar
     6     9    18    1
     7     9    10    1
     8    10    11    1
     9    11    12    1
    10    12     5    1
    11     5     6    1
    12     6     7    1
    13     7     1    1
    14     1     2   am
    15     2     3    2
    16     2    23    1
    17    23    24    1
    18    24    25   am
    19    25    26    2
    20    25    28    1
    21    28    29   ar
    22    29    30   ar
    23    30    31   ar
    24    31    32   ar
    25    32    34    1
    26    34    35    1
    27    34    36    1
    28    34    37    1
    29    32    33   ar
    30     7     8    1
    31    12    13    1
    32    13    14    1
    33    18    19   ar
    34    19    20   ar
    35    20    15   ar
    36    14     9    1
    37     8     5    1
    38    33    28   ar
    39     1     4    1
    40    24    27    1
@<TRIPOS>MOLECULE
*****
 37 40 0 0 0
SMALL
GASTEIGER

@<TRIPOS>ATOM
      1 N         138.9026  140.8568  163.7183 N.am    1  UNL1       -0.3018
      2 C         138.7134  139.3717  163.6245 C.2     1  UNL1        0.2426
      3 O         138.7335  138.6961  162.2854 O.2     1  UNL1       -0.2733
      4 H         138.8894  141.3001  164.5972 H       1  UNL1        0.1495
      5 N         139.4078  142.8111  160.7118 N.3     1  UNL1       -0.2711
      6 C         138.2919  142.6583  161.7025 C.3     1  UNL1        0.0933
      7 C         139.1119  141.6663  162.4729 C.3     1  UNL1        0.1035
      8 C         140.2278  141.8191  161.4823 C.3     1  UNL1        0.0933
      9 C         140.0357  145.2397  156.9758 C.3     1  UNL1        0.0224
     10 C         139.3138  143.9268  156.9044 C.3     1  UNL1        0.0057
     11 C         139.1046  143.1173  158.1497 C.3     1  UNL1        0.0163
     12 C         139.6171  143.6207  159.4665 C.3     1  UNL1        0.0576
     13 C         140.3390  144.9336  159.5379 C.3     1  UNL1        0.0163
     14 C         140.5483  145.7431  158.2925 C.3     1  UNL1        0.0057
     15 C         140.6635  147.6683  153.2398 C.ar    1  UNL1        0.1387
     16 C         141.3823  146.3636  153.4158 C.ar    1  UNL1        0.0366
     17 C         141.1730  145.5541  154.6612 C.ar    1  UNL1       -0.0012
     18 C         140.2450  146.0492  155.7304 C.ar    1  UNL1       -0.0223
     19 C         139.5262  147.3540  155.5544 C.ar    1  UNL1       -0.0012
     20 C         139.7355  148.1635  154.3091 C.ar    1  UNL1        0.0366
     21 C         141.7025  149.7266  152.0422 C.3     1  UNL1        0.2525
     22 O         140.8728  148.4778  151.9944 O.3     1  UNL1       -0.4714
     23 C         138.5041  138.5622  164.8699 C.3     1  UNL1        0.1759
     24 N         138.7118  139.1901  166.2163 N.am    1  UNL1       -0.2931
     25 C         140.0774  139.6592  166.6224 C.2     1  UNL1        0.2462
     26 O         141.2354  139.5005  165.6821 O.2     1  UNL1       -0.2701
     27 H         137.9518  139.2942  166.8334 H       1  UNL1        0.1502
     28 C         140.2852  140.2870  167.9687 C.ar    1  UNL1        0.0533
     29 C         139.1875  140.2511  168.9905 C.ar    1  UNL1        0.0045
     30 C         139.3952  140.8789  170.3368 C.ar    1  UNL1        0.0001
     31 C         140.7006  141.5427  170.6615 C.ar    1  UNL1        0.0039
     32 C         141.7982  141.5786  169.6398 C.ar    1  UNL1        0.0716
     33 C         141.5906  140.9508  168.2934 C.ar    1  UNL1        0.0084
     34 C         143.1036  142.2424  169.9645 C.3     1  UNL1        0.4186
     35 F         144.4090  142.9061  170.2892 F       1  UNL1       -0.1659
     36 F         143.7863  140.9068  169.9504 F       1  UNL1       -0.1659
     37 F         142.4210  143.5780  169.9786 F       1  UNL1       -0.1659
@<TRIPOS>BOND
     1    21    22    1
     2    22    15    1
     3    15    16   ar
     4    16    17   ar
     5    17    18   ar
     6     9    18    1
     7     9    10    1
     8    10    11    1
     9    11    12    1
    10    12     5    1
    11     5     6    1
    12     6     7    1
    13     7     1    1
    14     1     2   am
    15     2     3    2
    16     2    23    1
    17    23    24    1
    18    24    25   am
    19    25    26    2
    20    25    28    1
    21    28    29   ar
    22    29    30   ar
    23    30    31   ar
    24    31    32   ar
    25    32    34    1
    26    34    35    1
    27    34    36    1
    28    34    37    1
    29    32    33   ar
    30     7     8    1
    31    12    13    1
    32    13    14    1
    33    18    19   ar
    34    19    20   ar
    35    20    15   ar
    36    14     9    1
    37     8     5    1
    38    33    28   ar
    39     1     4    1
    40    24    27    1
@<TRIPOS>MOLECULE
*****
 37 40 0 0 0
SMALL
GASTEIGER

@<TRIPOS>ATOM
      1 N         139.2510  140.0895  161.8431 N.am    1  UNL1       -0.3018
      2 C         139.9847  140.2397  163.1427 C.2     1  UNL1        0.2426
      3 O         140.8217  141.4586  163.3949 O.2     1  UNL1       -0.2733
      4 H         138.7016  139.2894  161.6775 H       1  UNL1        0.1495
      5 N         139.5003  142.6696  159.3143 N.3     1  UNL1       -0.2711
      6 C         138.5548  142.3770  160.4415 C.3     1  UNL1        0.0933
      7 C         139.3543  141.1582  160.7956 C.3     1  UNL1        0.1035
      8 C         140.2998  141.4508  159.6685 C.3     1  UNL1        0.0933
      9 C         139.8101  145.8758  156.1720 C.3     1  UNL1        0.0224
     10 C         139.0259  144.6275  155.8950 C.3     1  UNL1        0.0057
     11 C         138.9226  143.5588  156.9425 C.3     1  UNL1        0.0163
     12 C         139.6036  143.7383  158.2669 C.3     1  UNL1        0.0576
     13 C         140.3877  144.9866  158.5438 C.3     1  UNL1        0.0163
     14 C         140.4910  146.0554  157.4963 C.3     1  UNL1        0.0057
     15 C         140.1199  149.0820  153.0296 C.ar    1  UNL1        0.1387
     16 C         139.2979  149.3167  154.2621 C.ar    1  UNL1        0.0366
     17 C         139.1946  148.2480  155.3096 C.ar    1  UNL1       -0.0012
     18 C         139.9134  146.9445  155.1245 C.ar    1  UNL1       -0.0223
     19 C         140.7354  146.7098  153.8920 C.ar    1  UNL1       -0.0012
     20 C         140.8387  147.7785  152.8446 C.ar    1  UNL1        0.0366
     21 C         139.2398  151.2833  151.9668 C.3     1  UNL1        0.2525
     22 O         140.2232  150.1507  151.9822 O.3     1  UNL1       -0.4714
     23 C         139.8814  139.1709  164.1901 C.3     1  UNL1        0.1759
     24 N         140.0354  139.5242  165.6398 N.am    1  UNL1       -0.2931
     25 C         141.4020  139.5897  166.2547 C.2     1  UNL1        0.2462
     26 O         142.6146  139.3019  165.4199 O.2     1  UNL1       -0.2701
     27 H         139.2395  139.7131  166.1877 H       1  UNL1        0.1502
     28 C         141.5560  139.9430  167.7043 C.ar    1  UNL1        0.0533
     29 C         142.5158  139.1763  168.5653 C.ar    1  UNL1        0.0045
     30 C         142.6698  139.5296  170.0149 C.ar    1  UNL1        0.0001
     31 C         141.8641  140.6496  170.6036 C.ar    1  UNL1        0.0039
     32 C         140.9044  141.4162  169.7428 C.ar    1  UNL1        0.0716
     33 C         140.7504  141.0630  168.2931 C.ar    1  UNL1        0.0084
     34 C         140.0987  142.5361  170.3315 C.3     1  UNL1        0.4186
     35 F         139.2931  143.6561  170.9203 F       1  UNL1       -0.1659
     36 F         138.8835  141.6569  170.3411 F       1  UNL1       -0.1659
     37 F         141.3140  143.4154  170.3219 F       1  UNL1       -0.1659
@<TRIPOS>BOND
     1    21    22    1
     2    22    15    1
     3    15    16   ar
     4    16    17   ar
     5    17    18   ar
     6     9    18    1
     7     9    10    1
     8    10    11    1
     9    11    12    1
    10    12     5    1
    11     5     6    1
    12     6     7    1
    13     7     1    1
    14     1     2   am
    15     2     3    2
    16     2    23    1
    17    23    24    1
    18    24    25   am
    19    25    26    2
    20    25    28    1
    21    28    29   ar
    22    29    30   ar
    23    30    31   ar
    24    31    32   ar
    25    32    34    1
    26    34    35    1
    27    34    36    1
    28    34    37    1
    29    32    33   ar
    30     7     8    1
    31    12    13    1
    32    13    14    1
    33    18    19   ar
    34    19    20   ar
    35    20    15   ar
    36    14     9    1
    37     8     5    1
    38    33    28   ar
    39     1     4    1
    40    24    27    1
