@<TRIPOS>MOLECULE
*****
 20 20 0 0 0
SMALL
GASTEIGER

@<TRIPOS>ATOM
      1 N         139.4446  139.8464  166.7768 N.am    1  UNL1       -0.2994
      2 C         139.4908  140.0904  168.2560 C.2     1  UNL1        0.2459
      3 O         138.4304  139.5116  169.1451 O.2     1  UNL1       -0.2701
      4 H         140.1406  140.2263  166.1932 H       1  UNL1        0.1498
      5 C         140.5975  140.9131  168.8463 C.ar    1  UNL1        0.0534
      6 C         140.3393  142.3320  169.2585 C.ar    1  UNL1        0.0058
      7 C         141.4460  143.1547  169.8488 C.ar    1  UNL1        0.0142
      8 C         142.8108  142.5586  170.0268 C.ar    1  UNL1        0.0415
      9 N         143.9175  143.3813  170.6171 N.pl3   1  UNL1       -0.3570
     10 C         143.0690  141.1397  169.6146 C.ar    1  UNL1        0.0142
     11 C         141.9623  140.3169  169.0243 C.ar    1  UNL1        0.0058
     12 H         143.7481  144.3126  170.8876 H       1  UNL1        0.1424
     13 H         144.8133  142.9900  170.7339 H       1  UNL1        0.1424
     14 C         138.3379  139.0237  166.1865 C.3     1  UNL1        0.1070
     15 C         138.6428  137.6945  165.5616 C.3     1  UNL1        0.0936
     16 N         139.5248  137.6198  164.3506 N.3     1  UNL1       -0.2712
     17 C         141.9978  138.0828  164.9987 C.3     1  UNL1        0.0188
     18 C         140.9428  137.1492  164.4834 C.3     1  UNL1        0.0722
     19 C         138.9887  138.0158  163.0067 C.3     1  UNL1        0.0722
     20 C         139.8864  137.9944  161.8052 C.3     1  UNL1        0.0188
@<TRIPOS>BOND
     1    17    18    1
     2    18    16    1
     3    16    19    1
     4    19    20    1
     5    16    15    1
     6    15    14    1
     7    14     1    1
     8     1     2   am
     9     2     3    2
    10     2     5    1
    11     5     6   ar
    12     6     7   ar
    13     7     8   ar
    14     8     9    1
    15     8    10   ar
    16    10    11   ar
    17    11     5   ar
    18     1     4    1
    19     9    12    1
    20     9    13    1
@<TRIPOS>MOLECULE
*****
 20 20 0 0 0
SMALL
GASTEIGER

@<TRIPOS>ATOM
      1 N         141.3654  142.1204  164.7983 N.am    1  UNL1       -0.2994
      2 C         140.6076  141.8804  166.0704 C.2     1  UNL1        0.2459
      3 O         139.2458  141.2533  166.0251 O.2     1  UNL1       -0.2701
      4 H         142.2593  142.5319  164.8280 H       1  UNL1        0.1498
      5 C         141.2117  142.2675  167.3877 C.ar    1  UNL1        0.0534
      6 C         140.3847  142.9919  168.4081 C.ar    1  UNL1        0.0058
      7 C         140.9887  143.3790  169.7254 C.ar    1  UNL1        0.0142
      8 C         142.4198  143.0416  170.0223 C.ar    1  UNL1        0.0415
      9 N         143.0238  143.4287  171.3396 N.pl3   1  UNL1       -0.3570
     10 C         143.2468  142.3172  169.0019 C.ar    1  UNL1        0.0142
     11 C         142.6427  141.9301  167.6846 C.ar    1  UNL1        0.0058
     12 H         142.4810  143.9042  172.0093 H       1  UNL1        0.1424
     13 H         143.9631  143.2073  171.5345 H       1  UNL1        0.1424
     14 C         140.7614  141.7333  163.4810 C.3     1  UNL1        0.1070
     15 C         140.1283  142.7780  162.6103 C.3     1  UNL1        0.0936
     16 N         139.7891  144.1237  163.1795 N.3     1  UNL1       -0.2712
     17 C         138.6375  144.8838  165.3809 C.3     1  UNL1        0.0188
     18 C         138.5474  144.2985  164.0028 C.3     1  UNL1        0.0722
     19 C         140.6915  145.2946  162.9254 C.3     1  UNL1        0.0722
     20 C         142.0140  145.3884  163.6270 C.3     1  UNL1        0.0188
@<TRIPOS>BOND
     1    17    18    1
     2    18    16    1
     3    16    19    1
     4    19    20    1
     5    16    15    1
     6    15    14    1
     7    14     1    1
     8     1     2   am
     9     2     3    2
    10     2     5    1
    11     5     6   ar
    12     6     7   ar
    13     7     8   ar
    14     8     9    1
    15     8    10   ar
    16    10    11   ar
    17    11     5   ar
    18     1     4    1
    19     9    12    1
    20     9    13    1
@<TRIPOS>MOLECULE
*****
 20 20 0 0 0
SMALL
GASTEIGER

@<TRIPOS>ATOM
      1 N         141.4464  142.0619  164.8115 N.am    1  UNL1       -0.2994
      2 C         140.6459  141.8973  166.0692 C.2     1  UNL1        0.2459
      3 O         139.2496  141.3533  166.0037 O.2     1  UNL1       -0.2701
      4 H         142.3629  142.4190  164.8544 H       1  UNL1        0.1498
      5 C         141.2417  142.2768  167.3925 C.ar    1  UNL1        0.0534
      6 C         142.6790  141.9635  167.6854 C.ar    1  UNL1        0.0058
      7 C         143.2748  142.3429  169.0087 C.ar    1  UNL1        0.0142
      8 C         142.4332  143.0357  170.0391 C.ar    1  UNL1        0.0415
      9 N         143.0290  143.4152  171.3623 N.pl3   1  UNL1       -0.3570
     10 C         140.9959  143.3491  169.7462 C.ar    1  UNL1        0.0142
     11 C         140.4001  142.9696  168.4229 C.ar    1  UNL1        0.0058
     12 H         143.9724  143.2095  171.5546 H       1  UNL1        0.1424
     13 H         142.4766  143.8699  172.0386 H       1  UNL1        0.1424
     14 C         140.8507  141.6825  163.4882 C.3     1  UNL1        0.1070
     15 C         140.2683  142.7394  162.5971 C.3     1  UNL1        0.0936
     16 N         139.9228  144.0868  163.1586 N.3     1  UNL1       -0.2712
     17 C         138.6907  144.8537  165.3135 C.3     1  UNL1        0.0188
     18 C         138.6505  144.2737  163.9307 C.3     1  UNL1        0.0722
     19 C         140.8497  145.2472  162.9478 C.3     1  UNL1        0.0722
     20 C         142.1587  145.3038  163.6782 C.3     1  UNL1        0.0188
@<TRIPOS>BOND
     1    17    18    1
     2    18    16    1
     3    16    19    1
     4    19    20    1
     5    16    15    1
     6    15    14    1
     7    14     1    1
     8     1     2   am
     9     2     3    2
    10     2     5    1
    11     5     6   ar
    12     6     7   ar
    13     7     8   ar
    14     8     9    1
    15     8    10   ar
    16    10    11   ar
    17    11     5   ar
    18     1     4    1
    19     9    12    1
    20     9    13    1
@<TRIPOS>MOLECULE
*****
 20 20 0 0 0
SMALL
GASTEIGER

@<TRIPOS>ATOM
      1 N         139.6574  139.9923  167.5942 N.am    1  UNL1       -0.2994
      2 C         138.5762  139.1903  166.9326 C.2     1  UNL1        0.2459
      3 O         137.5335  138.5059  167.7658 O.2     1  UNL1       -0.2701
      4 H         140.3417  140.4415  167.0473 H       1  UNL1        0.1498
      5 C         138.5377  139.0726  165.4377 C.ar    1  UNL1        0.0534
      6 C         138.1177  140.2464  164.6036 C.ar    1  UNL1        0.0058
      7 C         138.0792  140.1288  163.1087 C.ar    1  UNL1        0.0142
      8 C         138.4607  138.8373  162.4479 C.ar    1  UNL1        0.0415
      9 N         138.4222  138.7197  160.9530 N.pl3   1  UNL1       -0.3570
     10 C         138.8807  137.6636  163.2820 C.ar    1  UNL1        0.0142
     11 C         138.9192  137.7812  164.7769 C.ar    1  UNL1        0.0058
     12 H         138.1465  139.4901  160.4056 H       1  UNL1        0.1424
     13 H         138.6726  137.8721  160.5194 H       1  UNL1        0.1424
     14 C         139.6958  140.1099  169.0891 C.3     1  UNL1        0.1070
     15 C         140.8380  140.8171  169.7566 C.3     1  UNL1        0.0936
     16 N         141.3447  142.1147  169.2003 N.3     1  UNL1       -0.2712
     17 C         140.4345  144.3749  170.1019 C.3     1  UNL1        0.0188
     18 C         140.4184  143.2872  169.0692 C.3     1  UNL1        0.0722
     19 C         142.7777  142.2398  168.7751 C.3     1  UNL1        0.0722
     20 C         143.8602  142.3441  169.8082 C.3     1  UNL1        0.0188
@<TRIPOS>BOND
     1    17    18    1
     2    18    16    1
     3    16    19    1
     4    19    20    1
     5    16    15    1
     6    15    14    1
     7    14     1    1
     8     1     2   am
     9     2     3    2
    10     2     5    1
    11     5     6   ar
    12     6     7   ar
    13     7     8   ar
    14     8     9    1
    15     8    10   ar
    16    10    11   ar
    17    11     5   ar
    18     1     4    1
    19     9    12    1
    20     9    13    1
@<TRIPOS>MOLECULE
*****
 20 20 0 0 0
SMALL
GASTEIGER

@<TRIPOS>ATOM
      1 N         140.3746  140.1751  166.3724 N.am    1  UNL1       -0.2994
      2 C         140.0988  140.3229  167.8393 C.2     1  UNL1        0.2459
      3 O         138.9755  139.5564  168.4722 O.2     1  UNL1       -0.2701
      4 H         141.1119  140.6782  165.9570 H       1  UNL1        0.1498
      5 C         140.9462  141.2373  168.6734 C.ar    1  UNL1        0.0534
      6 C         142.3481  140.8417  169.0315 C.ar    1  UNL1        0.0058
      7 C         143.1955  141.7561  169.8656 C.ar    1  UNL1        0.0142
      8 C         142.6412  143.0660  170.3417 C.ar    1  UNL1        0.0415
      9 N         143.4886  143.9804  171.1758 N.pl3   1  UNL1       -0.3570
     10 C         141.2393  143.4616  169.9836 C.ar    1  UNL1        0.0142
     11 C         140.3918  142.5472  169.1495 C.ar    1  UNL1        0.0058
     12 H         144.4087  143.7208  171.4108 H       1  UNL1        0.1424
     13 H         143.1247  144.8402  171.4882 H       1  UNL1        0.1424
     14 C         139.5271  139.2607  165.5383 C.3     1  UNL1        0.1070
     15 C         138.1780  139.7135  165.0640 C.3     1  UNL1        0.0936
     16 N         138.0303  140.3380  163.7082 N.3     1  UNL1       -0.2712
     17 C         138.0083  142.8344  164.4274 C.3     1  UNL1        0.0188
     18 C         137.4685  141.7226  163.5774 C.3     1  UNL1        0.0722
     19 C         138.4445  139.5778  162.4831 C.3     1  UNL1        0.0722
     20 C         138.2697  138.0890  162.4296 C.3     1  UNL1        0.0188
@<TRIPOS>BOND
     1    17    18    1
     2    18    16    1
     3    16    19    1
     4    19    20    1
     5    16    15    1
     6    15    14    1
     7    14     1    1
     8     1     2   am
     9     2     3    2
    10     2     5    1
    11     5     6   ar
    12     6     7   ar
    13     7     8   ar
    14     8     9    1
    15     8    10   ar
    16    10    11   ar
    17    11     5   ar
    18     1     4    1
    19     9    12    1
    20     9    13    1
@<TRIPOS>MOLECULE
*****
 20 20 0 0 0
SMALL
GASTEIGER

@<TRIPOS>ATOM
      1 N         142.1848  141.4684  164.6563 N.am    1  UNL1       -0.2994
      2 C         141.3793  142.3992  165.5134 C.2     1  UNL1        0.2459
      3 O         140.3057  143.2462  164.8970 O.2     1  UNL1       -0.2701
      4 H         142.8895  140.9125  165.0608 H       1  UNL1        0.1498
      5 C         141.6474  142.4831  166.9868 C.ar    1  UNL1        0.0534
      6 C         143.0198  142.1912  167.5172 C.ar    1  UNL1        0.0058
      7 C         143.2879  142.2751  168.9907 C.ar    1  UNL1        0.0142
      8 C         142.1837  142.6510  169.9337 C.ar    1  UNL1        0.0415
      9 N         142.4518  142.7349  171.4072 N.pl3   1  UNL1       -0.3570
     10 C         140.8113  142.9429  169.4033 C.ar    1  UNL1        0.0142
     11 C         140.5432  142.8590  167.9299 C.ar    1  UNL1        0.0058
     12 H         143.3526  142.5432  171.7553 H       1  UNL1        0.1424
     13 H         141.7271  142.9815  172.0262 H       1  UNL1        0.1424
     14 C         141.9167  141.3845  163.1828 C.3     1  UNL1        0.1070
     15 C         142.5448  142.3759  162.2486 C.3     1  UNL1        0.0936
     16 N         143.9353  142.8748  162.5087 N.3     1  UNL1       -0.2712
     17 C         143.4174  145.0160  163.8859 C.3     1  UNL1        0.0188
     18 C         144.1705  144.3303  162.7847 C.3     1  UNL1        0.0722
     19 C         145.0906  141.9182  162.4927 C.3     1  UNL1        0.0722
     20 C         145.8068  141.5858  163.7681 C.3     1  UNL1        0.0188
@<TRIPOS>BOND
     1    17    18    1
     2    18    16    1
     3    16    19    1
     4    19    20    1
     5    16    15    1
     6    15    14    1
     7    14     1    1
     8     1     2   am
     9     2     3    2
    10     2     5    1
    11     5     6   ar
    12     6     7   ar
    13     7     8   ar
    14     8     9    1
    15     8    10   ar
    16    10    11   ar
    17    11     5   ar
    18     1     4    1
    19     9    12    1
    20     9    13    1
@<TRIPOS>MOLECULE
*****
 20 20 0 0 0
SMALL
GASTEIGER

@<TRIPOS>ATOM
      1 N         139.2594  139.9587  167.0144 N.am    1  UNL1       -0.2994
      2 C         140.0953  141.1696  166.7229 C.2     1  UNL1        0.2459
      3 O         140.1121  141.7545  165.3418 O.2     1  UNL1       -0.2701
      4 H         139.2483  139.5749  167.9209 H       1  UNL1        0.1498
      5 C         140.9143  141.7956  167.8125 C.ar    1  UNL1        0.0534
      6 C         142.3638  141.4393  167.9602 C.ar    1  UNL1        0.0058
      7 C         143.1829  142.0653  169.0498 C.ar    1  UNL1        0.0142
      8 C         142.5524  143.0476  169.9918 C.ar    1  UNL1        0.0415
      9 N         143.3714  143.6737  171.0814 N.pl3   1  UNL1       -0.3570
     10 C         141.1029  143.4040  169.8442 C.ar    1  UNL1        0.0142
     11 C         140.2838  142.7780  168.7545 C.ar    1  UNL1        0.0058
     12 H         144.3228  143.4398  171.1783 H       1  UNL1        0.1424
     13 H         142.9576  144.3184  171.6997 H       1  UNL1        0.1424
     14 C         138.4404  139.3327  165.9248 C.3     1  UNL1        0.1070
     15 C         138.7194  137.9238  165.4920 C.3     1  UNL1        0.0936
     16 N         139.4551  137.6646  164.2108 N.3     1  UNL1       -0.2712
     17 C         138.5078  139.0199  162.2069 C.3     1  UNL1        0.0188
     18 C         138.7220  137.7085  162.9029 C.3     1  UNL1        0.0722
     19 C         140.9239  137.3613  164.2376 C.3     1  UNL1        0.0722
     20 C         141.8424  138.1763  165.0991 C.3     1  UNL1        0.0188
@<TRIPOS>BOND
     1    17    18    1
     2    18    16    1
     3    16    19    1
     4    19    20    1
     5    16    15    1
     6    15    14    1
     7    14     1    1
     8     1     2   am
     9     2     3    2
    10     2     5    1
    11     5     6   ar
    12     6     7   ar
    13     7     8   ar
    14     8     9    1
    15     8    10   ar
    16    10    11   ar
    17    11     5   ar
    18     1     4    1
    19     9    12    1
    20     9    13    1
@<TRIPOS>MOLECULE
*****
 20 20 0 0 0
SMALL
GASTEIGER

@<TRIPOS>ATOM
      1 N         140.5133  141.6383  164.8661 N.am    1  UNL1       -0.2994
      2 C         141.6330  142.4234  165.4825 C.2     1  UNL1        0.2459
      3 O         142.5985  143.1663  164.6074 O.2     1  UNL1       -0.2701
      4 H         139.8796  141.1506  165.4404 H       1  UNL1        0.1498
      5 C         141.7872  142.4655  166.9739 C.ar    1  UNL1        0.0534
      6 C         143.1326  142.2350  167.5956 C.ar    1  UNL1        0.0058
      7 C         143.2868  142.2771  169.0871 C.ar    1  UNL1        0.0142
      8 C         142.0956  142.5497  169.9568 C.ar    1  UNL1        0.0415
      9 N         142.2497  142.5919  171.4483 N.pl3   1  UNL1       -0.3570
     10 C         140.7501  142.7802  169.3351 C.ar    1  UNL1        0.0142
     11 C         140.5959  142.7381  167.8437 C.ar    1  UNL1        0.0058
     12 H         143.1328  142.4406  171.8563 H       1  UNL1        0.1424
     13 H         141.4679  142.7708  172.0191 H       1  UNL1        0.1424
     14 C         140.3591  141.5961  163.3746 C.3     1  UNL1        0.1070
     15 C         139.4015  142.5280  162.6930 C.3     1  UNL1        0.0936
     16 N         139.3207  143.9639  163.1192 N.3     1  UNL1       -0.2712
     17 C         139.7893  146.1837  161.8531 C.3     1  UNL1        0.0188
     18 C         140.2925  144.9654  162.5690 C.3     1  UNL1        0.0722
     19 C         138.2680  144.3984  164.0955 C.3     1  UNL1        0.0722
     20 C         138.6649  144.9012  165.4519 C.3     1  UNL1        0.0188
@<TRIPOS>BOND
     1    17    18    1
     2    18    16    1
     3    16    19    1
     4    19    20    1
     5    16    15    1
     6    15    14    1
     7    14     1    1
     8     1     2   am
     9     2     3    2
    10     2     5    1
    11     5     6   ar
    12     6     7   ar
    13     7     8   ar
    14     8     9    1
    15     8    10   ar
    16    10    11   ar
    17    11     5   ar
    18     1     4    1
    19     9    12    1
    20     9    13    1
@<TRIPOS>MOLECULE
*****
 20 20 0 0 0
SMALL
GASTEIGER

@<TRIPOS>ATOM
      1 N         140.9591  141.9228  164.8176 N.am    1  UNL1       -0.2994
      2 C         139.9360  141.3154  165.7309 C.2     1  UNL1        0.2459
      3 O         138.8190  140.4910  165.1629 O.2     1  UNL1       -0.2701
      4 H         141.6922  142.4640  165.1903 H       1  UNL1        0.1498
      5 C         140.0297  141.5325  167.2121 C.ar    1  UNL1        0.0534
      6 C         140.4731  142.8611  167.7488 C.ar    1  UNL1        0.0058
      7 C         140.5669  143.0782  169.2301 C.ar    1  UNL1        0.0142
      8 C         140.2173  141.9666  170.1746 C.ar    1  UNL1        0.0415
      9 N         140.3111  142.1837  171.6558 N.pl3   1  UNL1       -0.3570
     10 C         139.7739  140.6380  169.6379 C.ar    1  UNL1        0.0142
     11 C         139.6801  140.4209  168.1566 C.ar    1  UNL1        0.0058
     12 H         140.6021  143.0558  172.0081 H       1  UNL1        0.1424
     13 H         140.0817  141.4541  172.2758 H       1  UNL1        0.1424
     14 C         140.8653  141.7058  163.3363 C.3     1  UNL1        0.1070
     15 C         140.3157  142.7866  162.4532 C.3     1  UNL1        0.0936
     16 N         139.9485  144.1183  163.0378 N.3     1  UNL1       -0.2712
     17 C         142.1573  145.2812  163.7581 C.3     1  UNL1        0.0188
     18 C         140.9028  145.2710  162.9357 C.3     1  UNL1        0.0722
     19 C         138.6269  144.2973  163.7244 C.3     1  UNL1        0.0722
     20 C         138.5787  144.7730  165.1462 C.3     1  UNL1        0.0188
@<TRIPOS>BOND
     1    17    18    1
     2    18    16    1
     3    16    19    1
     4    19    20    1
     5    16    15    1
     6    15    14    1
     7    14     1    1
     8     1     2   am
     9     2     3    2
    10     2     5    1
    11     5     6   ar
    12     6     7   ar
    13     7     8   ar
    14     8     9    1
    15     8    10   ar
    16    10    11   ar
    17    11     5   ar
    18     1     4    1
    19     9    12    1
    20     9    13    1
