@<TRIPOS>MOLECULE
*****
 32 36 0 0 0
SMALL
GASTEIGER

@<TRIPOS>ATOM
      1 C         137.7913  140.7490  162.1341 C.3     1  UNL1        0.0730
      2 N         138.7091  139.6963  162.6812 N.3     1  UNL1       -0.2724
      3 C         139.0137  138.3736  162.0426 C.3     1  UNL1        0.0724
      4 C         139.9763  137.6412  162.9298 C.3     1  UNL1        0.0214
      5 C         140.9162  137.1645  163.9971 C.3     1  UNL1        0.0072
      6 C         140.2666  138.5112  164.1167 C.3     1  UNL1        0.0350
      7 C         139.4835  139.7813  163.9631 C.3     1  UNL1        0.0761
      8 C         140.9052  138.8778  165.4235 C.ar    1  UNL1       -0.0215
      9 C         140.0964  139.5562  166.4892 C.ar    1  UNL1       -0.0043
     10 C         140.7349  139.9229  167.7961 C.ar    1  UNL1        0.0035
     11 C         142.1822  139.6110  168.0373 C.ar    1  UNL1        0.0714
     12 C         142.9910  138.9325  166.9716 C.ar    1  UNL1        0.0035
     13 C         142.3524  138.5659  165.6647 C.ar    1  UNL1       -0.0043
     14 C         142.8208  139.9775  169.3442 C.3     1  UNL1        0.4186
     15 F         143.4593  140.3441  170.6510 F       1  UNL1       -0.1659
     16 F         143.0484  141.3724  168.8417 F       1  UNL1       -0.1659
     17 F         142.5931  138.5827  169.8467 F       1  UNL1       -0.1659
     18 C         137.2771  141.8356  163.0312 C.3     1  UNL1        0.0294
     19 C         137.6082  143.2691  162.7388 C.3     1  UNL1        0.0666
     20 S         138.3882  144.0766  163.7336 S.3     1  UNL1       -0.0756
     21 C         141.8869  142.5838  164.5054 C.ar    1  UNL1        0.2029
     22 N         141.3502  142.7954  165.8900 N.ar    1  UNL1       -0.1250
     23 N         139.9743  143.3804  165.7695 N.ar    1  UNL1       -0.1220
     24 C         139.6606  143.5303  164.3103 C.ar    1  UNL1        0.1933
     25 N         140.8427  143.0379  163.5291 N.ar    1  UNL1       -0.2860
     26 C         140.9598  143.0055  162.0340 C.3     1  UNL1        0.1341
     27 C         144.7734  143.7796  165.4476 C.3     1  UNL1        0.0556
     28 C         144.5584  142.5670  164.5912 C.ar    1  UNL1        0.1001
     29 N         145.6326  141.6912  164.0175 N.ar    1  UNL1       -0.2085
     30 C         144.9697  140.6002  163.2299 C.ar    1  UNL1        0.2849
     31 O         143.4859  140.8018  163.3168 O.2     1  UNL1       -0.4283
     32 C         143.2318  142.0173  164.1581 C.ar    1  UNL1        0.1964
@<TRIPOS>BOND
     1    27    28    1
     2    28    29   ar
     3    29    30   ar
     4    30    31   ar
     5    31    32   ar
     6    32    21    1
     7    21    22   ar
     8    22    23   ar
     9    23    24   ar
    10    24    20    1
    11    20    19    1
    12    19    18    1
    13    18     1    1
    14     1     2    1
    15     2     3    1
    16     3     4    1
    17     4     5    1
    18     5     6    1
    19     6     8    1
    20     8     9   ar
    21     9    10   ar
    22    10    11   ar
    23    11    14    1
    24    14    15    1
    25    14    16    1
    26    14    17    1
    27    11    12   ar
    28    12    13   ar
    29     6     7    1
    30    24    25   ar
    31    25    26    1
    32    32    28   ar
    33    25    21   ar
    34     7     2    1
    35     6     4    1
    36    13     8   ar
@<TRIPOS>MOLECULE
*****
 32 36 0 0 0
SMALL
GASTEIGER

@<TRIPOS>ATOM
      1 C         140.4229  137.4498  162.7628 C.3     1  UNL1        0.0730
      2 N         141.6819  138.1634  163.1574 N.3     1  UNL1       -0.2724
      3 C         142.9677  138.1753  162.3850 C.3     1  UNL1        0.0724
      4 C         143.9566  139.0096  163.1439 C.3     1  UNL1        0.0214
      5 C         144.7096  139.8795  164.1063 C.3     1  UNL1        0.0072
      6 C         143.2821  139.5133  164.3853 C.3     1  UNL1        0.0350
      7 C         141.8762  138.9903  164.3937 C.3     1  UNL1        0.0761
      8 C         143.1779  140.2637  165.6800 C.ar    1  UNL1       -0.0215
      9 C         142.7457  139.5512  166.9271 C.ar    1  UNL1       -0.0043
     10 C         142.6415  140.3016  168.2218 C.ar    1  UNL1        0.0035
     11 C         142.9695  141.7645  168.2693 C.ar    1  UNL1        0.0714
     12 C         143.4018  142.4771  167.0220 C.ar    1  UNL1        0.0035
     13 C         143.5059  141.7267  165.7274 C.ar    1  UNL1       -0.0043
     14 C         142.8654  142.5149  169.5639 C.3     1  UNL1        0.4186
     15 F         142.7612  143.2653  170.8585 F       1  UNL1       -0.1659
     16 F         144.3617  142.5583  169.6591 F       1  UNL1       -0.1659
     17 F         141.3690  142.4715  169.4686 F       1  UNL1       -0.1659
     18 C         139.0938  137.9525  163.2432 C.3     1  UNL1        0.0294
     19 C         138.1423  138.5963  162.2788 C.3     1  UNL1        0.0666
     20 S         137.9180  140.0789  162.3233 S.3     1  UNL1       -0.0756
     21 C         141.0099  142.3151  163.0335 C.ar    1  UNL1        0.2029
     22 N         140.2609  142.4367  164.3274 N.ar    1  UNL1       -0.1250
     23 N         139.0116  141.6138  164.2189 N.ar    1  UNL1       -0.1220
     24 C         138.9883  140.9836  162.8579 C.ar    1  UNL1        0.1933
     25 N         140.2234  141.4171  162.1253 N.ar    1  UNL1       -0.2860
     26 C         140.6050  141.0218  160.7295 C.3     1  UNL1        0.1341
     27 C         141.7779  145.4354  163.6026 C.3     1  UNL1        0.0556
     28 C         142.6691  144.4097  162.9670 C.ar    1  UNL1        0.1001
     29 N         144.0698  144.6384  162.4814 N.ar    1  UNL1       -0.2085
     30 C         144.5824  143.3455  161.9197 C.ar    1  UNL1        0.2849
     31 O         143.4987  142.3178  162.0582 O.2     1  UNL1       -0.4283
     32 C         142.3161  142.9756  162.7054 C.ar    1  UNL1        0.1964
@<TRIPOS>BOND
     1    27    28    1
     2    28    29   ar
     3    29    30   ar
     4    30    31   ar
     5    31    32   ar
     6    32    21    1
     7    21    22   ar
     8    22    23   ar
     9    23    24   ar
    10    24    20    1
    11    20    19    1
    12    19    18    1
    13    18     1    1
    14     1     2    1
    15     2     3    1
    16     3     4    1
    17     4     5    1
    18     5     6    1
    19     6     8    1
    20     8     9   ar
    21     9    10   ar
    22    10    11   ar
    23    11    14    1
    24    14    15    1
    25    14    16    1
    26    14    17    1
    27    11    12   ar
    28    12    13   ar
    29     6     7    1
    30    24    25   ar
    31    25    26    1
    32    32    28   ar
    33    25    21   ar
    34     7     2    1
    35     6     4    1
    36    13     8   ar
@<TRIPOS>MOLECULE
*****
 32 36 0 0 0
SMALL
GASTEIGER

@<TRIPOS>ATOM
      1 C         142.6585  144.6310  162.0994 C.3     1  UNL1        0.0730
      2 N         143.4304  143.5000  162.7117 N.3     1  UNL1       -0.2724
      3 C         144.6951  142.9013  162.1712 C.3     1  UNL1        0.0724
      4 C         145.1195  141.8003  163.0974 C.3     1  UNL1        0.0214
      5 C         145.2868  140.7799  164.1840 C.3     1  UNL1        0.0072
      6 C         144.1171  141.7185  164.2102 C.3     1  UNL1        0.0350
      7 C         143.0732  142.7690  163.9718 C.3     1  UNL1        0.0761
      8 C         143.5153  141.1838  165.4758 C.ar    1  UNL1       -0.0215
      9 C         143.0722  142.1287  166.5532 C.ar    1  UNL1       -0.0043
     10 C         142.4704  141.5939  167.8190 C.ar    1  UNL1        0.0035
     11 C         142.3116  140.1143  168.0072 C.ar    1  UNL1        0.0714
     12 C         142.7547  139.1693  166.9297 C.ar    1  UNL1        0.0035
     13 C         143.3565  139.7041  165.6641 C.ar    1  UNL1       -0.0043
     14 C         141.7098  139.5795  169.2728 C.3     1  UNL1        0.4186
     15 F         141.1080  139.0448  170.5385 F       1  UNL1       -0.1659
     16 F         140.3373  139.7505  168.6925 F       1  UNL1       -0.1659
     17 F         143.0824  139.4085  169.8532 F       1  UNL1       -0.1659
     18 C         141.4633  145.1942  162.8094 C.3     1  UNL1        0.0294
     19 C         140.1563  145.3302  162.0859 C.3     1  UNL1        0.0666
     20 S         138.8779  144.9407  162.7671 S.3     1  UNL1       -0.0756
     21 C         138.1914  141.1977  163.5307 C.ar    1  UNL1        0.2029
     22 N         137.4493  141.3708  162.2386 N.ar    1  UNL1       -0.1250
     23 N         137.6161  142.7939  161.7954 N.ar    1  UNL1       -0.1220
     24 C         138.4613  143.5005  162.8134 C.ar    1  UNL1        0.1933
     25 N         138.8168  142.5138  163.8859 N.ar    1  UNL1       -0.2860
     26 C         139.6514  142.7943  165.1004 C.3     1  UNL1        0.1341
     27 C         139.1663  138.2942  162.4040 C.3     1  UNL1        0.0556
     28 C         138.7387  138.5962  163.8097 C.ar    1  UNL1        0.1001
     29 N         138.6841  137.6165  164.9443 N.ar    1  UNL1       -0.2085
     30 C         138.2022  138.3456  166.1634 C.ar    1  UNL1        0.2849
     31 O         137.9589  139.7758  165.7822 O.2     1  UNL1       -0.4283
     32 C         138.2905  139.9306  164.3276 C.ar    1  UNL1        0.1964
@<TRIPOS>BOND
     1    27    28    1
     2    28    29   ar
     3    29    30   ar
     4    30    31   ar
     5    31    32   ar
     6    32    21    1
     7    21    22   ar
     8    22    23   ar
     9    23    24   ar
    10    24    20    1
    11    20    19    1
    12    19    18    1
    13    18     1    1
    14     1     2    1
    15     2     3    1
    16     3     4    1
    17     4     5    1
    18     5     6    1
    19     6     8    1
    20     8     9   ar
    21     9    10   ar
    22    10    11   ar
    23    11    14    1
    24    14    15    1
    25    14    16    1
    26    14    17    1
    27    11    12   ar
    28    12    13   ar
    29     6     7    1
    30    24    25   ar
    31    25    26    1
    32    32    28   ar
    33    25    21   ar
    34     7     2    1
    35     6     4    1
    36    13     8   ar
@<TRIPOS>MOLECULE
*****
 32 36 0 0 0
SMALL
GASTEIGER

@<TRIPOS>ATOM
      1 C         145.2703  141.8564  163.2068 C.3     1  UNL1        0.0730
      2 N         144.6014  140.9201  164.1690 N.3     1  UNL1       -0.2724
      3 C         144.7012  139.4234  164.1564 C.3     1  UNL1        0.0724
      4 C         143.8768  138.8943  165.2923 C.3     1  UNL1        0.0214
      5 C         142.9928  138.6682  166.4829 C.3     1  UNL1        0.0072
      6 C         143.2674  140.0639  166.0070 C.3     1  UNL1        0.0350
      7 C         143.7153  141.3159  165.3127 C.3     1  UNL1        0.0761
      8 C         142.4387  140.7516  167.0512 C.ar    1  UNL1       -0.0215
      9 C         142.9075  142.0451  167.6487 C.ar    1  UNL1       -0.0043
     10 C         142.0787  142.7328  168.6929 C.ar    1  UNL1        0.0035
     11 C         140.7813  142.1269  169.1396 C.ar    1  UNL1        0.0714
     12 C         140.3125  140.8333  168.5420 C.ar    1  UNL1        0.0035
     13 C         141.1412  140.1457  167.4978 C.ar    1  UNL1       -0.0043
     14 C         139.9526  142.8145  170.1838 C.3     1  UNL1        0.4186
     15 F         139.1239  143.5022  171.2280 F       1  UNL1       -0.1659
     16 F         139.0827  141.5976  170.2948 F       1  UNL1       -0.1659
     17 F         140.8225  144.0315  170.0728 F       1  UNL1       -0.1659
     18 C         144.6849  143.2137  162.9515 C.3     1  UNL1        0.0294
     19 C         143.8406  143.4495  161.7343 C.3     1  UNL1        0.0666
     20 S         142.3550  143.2533  161.8025 S.3     1  UNL1       -0.0756
     21 C         140.5711  140.1575  163.3186 C.ar    1  UNL1        0.2029
     22 N         141.2785  139.5403  162.1487 N.ar    1  UNL1       -0.1250
     23 N         142.0328  140.6249  161.4384 N.ar    1  UNL1       -0.1220
     24 C         141.7917  141.9123  162.1693 C.ar    1  UNL1        0.1933
     25 N         140.8883  141.6234  163.3313 N.ar    1  UNL1       -0.2860
     26 C         140.3896  142.6249  164.3306 C.3     1  UNL1        0.1341
     27 C         140.8206  137.0133  164.1561 C.3     1  UNL1        0.0556
     28 C         139.8142  137.9902  164.6880 C.ar    1  UNL1        0.1001
     29 N         138.7459  137.6934  165.6981 N.ar    1  UNL1       -0.2085
     30 C         137.9709  138.9552  165.9375 C.ar    1  UNL1        0.2849
     31 O         138.5602  140.0317  165.0753 O.2     1  UNL1       -0.4283
     32 C         139.6995  139.4354  164.3030 C.ar    1  UNL1        0.1964
@<TRIPOS>BOND
     1    27    28    1
     2    28    29   ar
     3    29    30   ar
     4    30    31   ar
     5    31    32   ar
     6    32    21    1
     7    21    22   ar
     8    22    23   ar
     9    23    24   ar
    10    24    20    1
    11    20    19    1
    12    19    18    1
    13    18     1    1
    14     1     2    1
    15     2     3    1
    16     3     4    1
    17     4     5    1
    18     5     6    1
    19     6     8    1
    20     8     9   ar
    21     9    10   ar
    22    10    11   ar
    23    11    14    1
    24    14    15    1
    25    14    16    1
    26    14    17    1
    27    11    12   ar
    28    12    13   ar
    29     6     7    1
    30    24    25   ar
    31    25    26    1
    32    32    28   ar
    33    25    21   ar
    34     7     2    1
    35     6     4    1
    36    13     8   ar
@<TRIPOS>MOLECULE
*****
 32 36 0 0 0
SMALL
GASTEIGER

@<TRIPOS>ATOM
      1 C         144.9792  141.5424  162.1146 C.3     1  UNL1        0.0730
      2 N         144.0415  140.3956  161.8789 N.3     1  UNL1       -0.2724
      3 C         144.0844  139.4458  160.7187 C.3     1  UNL1        0.0724
      4 C         142.9657  138.4604  160.8846 C.3     1  UNL1        0.0214
      5 C         141.7865  137.6376  161.3119 C.3     1  UNL1        0.0072
      6 C         142.2314  138.8011  162.1474 C.3     1  UNL1        0.0350
      7 C         142.8963  139.9971  162.7619 C.3     1  UNL1        0.0761
      8 C         141.1792  138.6460  163.2052 C.ar    1  UNL1       -0.0215
      9 C         139.9785  137.7846  162.9479 C.ar    1  UNL1       -0.0043
     10 C         138.9262  137.6294  164.0057 C.ar    1  UNL1        0.0035
     11 C         139.0747  138.3357  165.3206 C.ar    1  UNL1        0.0714
     12 C         140.2755  139.1972  165.5778 C.ar    1  UNL1        0.0035
     13 C         141.3277  139.3523  164.5201 C.ar    1  UNL1       -0.0043
     14 C         138.0225  138.1806  166.3783 C.3     1  UNL1        0.4186
     15 F         136.9703  138.0255  167.4360 F       1  UNL1       -0.1659
     16 F         138.0050  136.6992  166.1436 F       1  UNL1       -0.1659
     17 F         138.0400  139.6620  166.6130 F       1  UNL1       -0.1659
     18 C         144.9224  142.3044  163.4053 C.3     1  UNL1        0.0294
     19 C         144.1179  143.5672  163.4960 C.3     1  UNL1        0.0666
     20 S         142.7705  143.5523  164.1550 S.3     1  UNL1       -0.0756
     21 C         141.6512  142.1911  167.6132 C.ar    1  UNL1        0.2029
     22 N         143.1423  142.2031  167.7753 N.ar    1  UNL1       -0.1250
     23 N         143.7431  142.7145  166.4996 N.ar    1  UNL1       -0.1220
     24 C         142.6233  143.0185  165.5491 C.ar    1  UNL1        0.1933
     25 N         141.3304  142.6950  166.2374 N.ar    1  UNL1       -0.2860
     26 C         139.9577  142.8485  165.6524 C.3     1  UNL1        0.1341
     27 C         140.4208  144.0439  170.0013 C.3     1  UNL1        0.0556
     28 C         140.0901  142.6037  169.7434 C.ar    1  UNL1        0.1001
     29 N         139.1358  141.7624  170.5380 N.ar    1  UNL1       -0.2085
     30 C         139.1115  140.3907  169.9314 C.ar    1  UNL1        0.2849
     31 O         140.0508  140.3844  168.7620 O.2     1  UNL1       -0.4283
     32 C         140.6556  141.7521  168.6458 C.ar    1  UNL1        0.1964
@<TRIPOS>BOND
     1    27    28    1
     2    28    29   ar
     3    29    30   ar
     4    30    31   ar
     5    31    32   ar
     6    32    21    1
     7    21    22   ar
     8    22    23   ar
     9    23    24   ar
    10    24    20    1
    11    20    19    1
    12    19    18    1
    13    18     1    1
    14     1     2    1
    15     2     3    1
    16     3     4    1
    17     4     5    1
    18     5     6    1
    19     6     8    1
    20     8     9   ar
    21     9    10   ar
    22    10    11   ar
    23    11    14    1
    24    14    15    1
    25    14    16    1
    26    14    17    1
    27    11    12   ar
    28    12    13   ar
    29     6     7    1
    30    24    25   ar
    31    25    26    1
    32    32    28   ar
    33    25    21   ar
    34     7     2    1
    35     6     4    1
    36    13     8   ar
@<TRIPOS>MOLECULE
*****
 32 36 0 0 0
SMALL
GASTEIGER

@<TRIPOS>ATOM
      1 C         142.2772  144.5442  161.6579 C.3     1  UNL1        0.0730
      2 N         141.3840  144.3766  162.8513 N.3     1  UNL1       -0.2724
      3 C         140.1201  145.1382  163.1205 C.3     1  UNL1        0.0724
      4 C         139.5528  144.6503  164.4206 C.3     1  UNL1        0.0214
      5 C         139.2360  143.9736  165.7212 C.3     1  UNL1        0.0072
      6 C         140.4662  143.5872  164.9549 C.3     1  UNL1        0.0350
      7 C         141.5979  143.4180  163.9850 C.3     1  UNL1        0.0761
      8 C         140.9373  142.5478  165.9284 C.ar    1  UNL1       -0.0215
      9 C         141.8559  141.4536  165.4712 C.ar    1  UNL1       -0.0043
     10 C         142.3270  140.4142  166.4447 C.ar    1  UNL1        0.0035
     11 C         141.8795  140.4689  167.8754 C.ar    1  UNL1        0.0714
     12 C         140.9609  141.5632  168.3325 C.ar    1  UNL1        0.0035
     13 C         140.4898  142.6026  167.3590 C.ar    1  UNL1       -0.0043
     14 C         142.3506  139.4296  168.8489 C.3     1  UNL1        0.4186
     15 F         142.8217  138.3902  169.8224 F       1  UNL1       -0.1659
     16 F         141.5681  140.0974  169.9406 F       1  UNL1       -0.1659
     17 F         143.1331  138.7617  167.7573 F       1  UNL1       -0.1659
     18 C         142.0028  143.7723  160.4014 C.3     1  UNL1        0.0294
     19 C         140.7014  143.9547  159.6782 C.3     1  UNL1        0.0666
     20 S         139.7222  142.8211  159.5985 S.3     1  UNL1       -0.0756
     21 C         138.4488  141.1460  162.8600 C.ar    1  UNL1        0.2029
     22 N         137.3652  142.1523  162.6088 N.ar    1  UNL1       -0.1250
     23 N         137.7103  142.9022  161.3565 N.ar    1  UNL1       -0.1220
     24 C         139.0072  142.3595  160.8337 C.ar    1  UNL1        0.1933
     25 N         139.4636  141.2741  161.7630 N.ar    1  UNL1       -0.2860
     26 C         140.7152  140.4597  161.6201 C.3     1  UNL1        0.1341
     27 C         138.6662  137.8983  162.6254 C.3     1  UNL1        0.0556
     28 C         138.6072  138.6883  163.8991 C.ar    1  UNL1        0.1001
     29 N         138.6378  138.1242  165.2887 N.ar    1  UNL1       -0.2085
     30 C         138.5568  139.2683  166.2553 C.ar    1  UNL1        0.2849
     31 O         138.4762  140.5395  165.4632 O.2     1  UNL1       -0.4283
     32 C         138.5073  140.1810  164.0070 C.ar    1  UNL1        0.1964
@<TRIPOS>BOND
     1    27    28    1
     2    28    29   ar
     3    29    30   ar
     4    30    31   ar
     5    31    32   ar
     6    32    21    1
     7    21    22   ar
     8    22    23   ar
     9    23    24   ar
    10    24    20    1
    11    20    19    1
    12    19    18    1
    13    18     1    1
    14     1     2    1
    15     2     3    1
    16     3     4    1
    17     4     5    1
    18     5     6    1
    19     6     8    1
    20     8     9   ar
    21     9    10   ar
    22    10    11   ar
    23    11    14    1
    24    14    15    1
    25    14    16    1
    26    14    17    1
    27    11    12   ar
    28    12    13   ar
    29     6     7    1
    30    24    25   ar
    31    25    26    1
    32    32    28   ar
    33    25    21   ar
    34     7     2    1
    35     6     4    1
    36    13     8   ar
@<TRIPOS>MOLECULE
*****
 32 36 0 0 0
SMALL
GASTEIGER

@<TRIPOS>ATOM
      1 C         142.2022  144.1507  161.4226 C.3     1  UNL1        0.0730
      2 N         143.1753  143.3012  162.1851 N.3     1  UNL1       -0.2724
      3 C         144.5844  142.9907  161.7752 C.3     1  UNL1        0.0724
      4 C         145.1902  142.1106  162.8281 C.3     1  UNL1        0.0214
      5 C         145.5155  141.2582  164.0187 C.3     1  UNL1        0.0072
      6 C         144.1554  141.8772  163.8887 C.3     1  UNL1        0.0350
      7 C         142.9102  142.6130  163.4912 C.3     1  UNL1        0.0761
      8 C         143.6060  141.3185  165.1677 C.ar    1  UNL1       -0.0215
      9 C         143.3281  139.8492  165.2860 C.ar    1  UNL1       -0.0043
     10 C         142.7786  139.2903  166.5650 C.ar    1  UNL1        0.0035
     11 C         142.5070  140.2009  167.7257 C.ar    1  UNL1        0.0714
     12 C         142.7848  141.6702  167.6074 C.ar    1  UNL1        0.0035
     13 C         143.3343  142.2290  166.3284 C.ar    1  UNL1       -0.0043
     14 C         141.9575  139.6421  169.0047 C.3     1  UNL1        0.4186
     15 F         141.4080  139.0834  170.2837 F       1  UNL1       -0.1659
     16 F         140.9850  140.7813  169.0846 F       1  UNL1       -0.1659
     17 F         142.9300  138.5029  168.9248 F       1  UNL1       -0.1659
     18 C         141.9343  143.8680  159.9741 C.3     1  UNL1        0.0294
     19 C         140.5616  144.0841  159.4091 C.3     1  UNL1        0.0666
     20 S         139.5657  142.9623  159.4086 S.3     1  UNL1       -0.0756
     21 C         138.6078  141.2306  162.7476 C.ar    1  UNL1        0.2029
     22 N         137.5242  142.2616  162.6345 N.ar    1  UNL1       -0.1250
     23 N         137.7511  143.0357  161.3700 N.ar    1  UNL1       -0.1220
     24 C         138.9750  142.4833  160.7015 C.ar    1  UNL1        0.1933
     25 N         139.5045  141.3676  161.5530 N.ar    1  UNL1       -0.2860
     26 C         140.7177  140.5352  161.2610 C.3     1  UNL1        0.1341
     27 C         139.6269  141.8896  165.7770 C.3     1  UNL1        0.0556
     28 C         139.2352  140.5399  165.2524 C.ar    1  UNL1        0.1001
     29 N         139.2433  139.2563  166.0284 N.ar    1  UNL1       -0.2085
     30 C         138.7799  138.1600  165.1155 C.ar    1  UNL1        0.2849
     31 O         138.4854  138.7661  163.7755 O.2     1  UNL1       -0.4283
     32 C         138.7669  140.2370  163.8601 C.ar    1  UNL1        0.1964
@<TRIPOS>BOND
     1    27    28    1
     2    28    29   ar
     3    29    30   ar
     4    30    31   ar
     5    31    32   ar
     6    32    21    1
     7    21    22   ar
     8    22    23   ar
     9    23    24   ar
    10    24    20    1
    11    20    19    1
    12    19    18    1
    13    18     1    1
    14     1     2    1
    15     2     3    1
    16     3     4    1
    17     4     5    1
    18     5     6    1
    19     6     8    1
    20     8     9   ar
    21     9    10   ar
    22    10    11   ar
    23    11    14    1
    24    14    15    1
    25    14    16    1
    26    14    17    1
    27    11    12   ar
    28    12    13   ar
    29     6     7    1
    30    24    25   ar
    31    25    26    1
    32    32    28   ar
    33    25    21   ar
    34     7     2    1
    35     6     4    1
    36    13     8   ar
@<TRIPOS>MOLECULE
*****
 32 36 0 0 0
SMALL
GASTEIGER

@<TRIPOS>ATOM
      1 C         140.5162  145.4157  162.4900 C.3     1  UNL1        0.0730
      2 N         141.5727  144.6760  163.2560 N.3     1  UNL1       -0.2724
      3 C         143.0392  144.6565  162.9411 C.3     1  UNL1        0.0724
      4 C         143.7211  143.7944  163.9618 C.3     1  UNL1        0.0214
      5 C         144.1135  142.8972  165.0980 C.3     1  UNL1        0.0072
      6 C         142.6760  143.2811  164.9076 C.3     1  UNL1        0.0350
      7 C         141.3483  143.8260  164.4713 C.3     1  UNL1        0.0761
      8 C         142.1511  142.5114  166.0831 C.ar    1  UNL1       -0.0215
      9 C         140.8028  142.8394  166.6527 C.ar    1  UNL1       -0.0043
     10 C         140.2778  142.0697  167.8284 C.ar    1  UNL1        0.0035
     11 C         141.1012  140.9720  168.4343 C.ar    1  UNL1        0.0714
     12 C         142.4495  140.6440  167.8646 C.ar    1  UNL1        0.0035
     13 C         142.9745  141.4137  166.6890 C.ar    1  UNL1       -0.0043
     14 C         140.5762  140.2023  169.6098 C.3     1  UNL1        0.4186
     15 F         140.0513  139.4325  170.7854 F       1  UNL1       -0.1659
     16 F         141.7296  139.2494  169.5010 F       1  UNL1       -0.1659
     17 F         139.4229  141.1551  169.7187 F       1  UNL1       -0.1659
     18 C         140.5577  145.4434  160.9909 C.3     1  UNL1        0.0294
     19 C         141.0048  144.2303  160.2304 C.3     1  UNL1        0.0666
     20 S         140.0190  143.1513  159.8927 S.3     1  UNL1       -0.0756
     21 C         138.5013  141.1509  162.8524 C.ar    1  UNL1        0.2029
     22 N         137.3262  141.9833  162.4323 N.ar    1  UNL1       -0.1250
     23 N         137.7518  142.8339  161.2725 N.ar    1  UNL1       -0.1220
     24 C         139.1898  142.5273  160.9757 C.ar    1  UNL1        0.1933
     25 N         139.6530  141.4872  161.9522 N.ar    1  UNL1       -0.2860
     26 C         141.0268  140.8884  162.0170 C.3     1  UNL1        0.1341
     27 C         138.8375  137.9192  162.5481 C.3     1  UNL1        0.0556
     28 C         138.6756  138.6715  163.8357 C.ar    1  UNL1        0.1001
     29 N         138.6398  138.0703  165.2095 N.ar    1  UNL1       -0.2085
     30 C         138.4631  139.1842  166.1984 C.ar    1  UNL1        0.2849
     31 O         138.3898  140.4737  165.4358 O.2     1  UNL1       -0.4283
     32 C         138.5211  140.1568  163.9756 C.ar    1  UNL1        0.1964
@<TRIPOS>BOND
     1    27    28    1
     2    28    29   ar
     3    29    30   ar
     4    30    31   ar
     5    31    32   ar
     6    32    21    1
     7    21    22   ar
     8    22    23   ar
     9    23    24   ar
    10    24    20    1
    11    20    19    1
    12    19    18    1
    13    18     1    1
    14     1     2    1
    15     2     3    1
    16     3     4    1
    17     4     5    1
    18     5     6    1
    19     6     8    1
    20     8     9   ar
    21     9    10   ar
    22    10    11   ar
    23    11    14    1
    24    14    15    1
    25    14    16    1
    26    14    17    1
    27    11    12   ar
    28    12    13   ar
    29     6     7    1
    30    24    25   ar
    31    25    26    1
    32    32    28   ar
    33    25    21   ar
    34     7     2    1
    35     6     4    1
    36    13     8   ar
@<TRIPOS>MOLECULE
*****
 32 36 0 0 0
SMALL
GASTEIGER

@<TRIPOS>ATOM
      1 C         140.6322  137.3753  163.1857 C.3     1  UNL1        0.0730
      2 N         141.5403  138.3547  163.8683 N.3     1  UNL1       -0.2724
      3 C         142.9521  138.6717  163.4728 C.3     1  UNL1        0.0724
      4 C         143.4805  139.7020  164.4263 C.3     1  UNL1        0.0214
      5 C         143.7243  140.7101  165.5100 C.3     1  UNL1        0.0072
      6 C         142.3953  140.0218  165.4113 C.3     1  UNL1        0.0350
      7 C         141.1962  139.1891  165.0664 C.3     1  UNL1        0.0761
      8 C         141.7733  140.7122  166.5887 C.ar    1  UNL1       -0.0215
      9 C         142.4725  141.8722  167.2333 C.ar    1  UNL1       -0.0043
     10 C         141.8506  142.5627  168.4108 C.ar    1  UNL1        0.0035
     11 C         140.5293  142.0932  168.9436 C.ar    1  UNL1        0.0714
     12 C         139.8300  140.9332  168.2990 C.ar    1  UNL1        0.0035
     13 C         140.4520  140.2427  167.1216 C.ar    1  UNL1       -0.0043
     14 C         139.9073  142.7837  170.1211 C.3     1  UNL1        0.4186
     15 F         139.2853  143.4742  171.2985 F       1  UNL1       -0.1659
     16 F         140.8585  143.9310  169.9508 F       1  UNL1       -0.1659
     17 F         138.9561  141.6365  170.2914 F       1  UNL1       -0.1659
     18 C         139.1443  137.5237  163.3041 C.3     1  UNL1        0.0294
     19 C         138.3110  137.7316  162.0743 C.3     1  UNL1        0.0666
     20 S         138.6031  138.8811  161.1559 S.3     1  UNL1       -0.0756
     21 C         138.7573  142.6391  162.1142 C.ar    1  UNL1        0.2029
     22 N         137.3823  142.2748  162.5903 N.ar    1  UNL1       -0.1250
     23 N         137.1572  140.8227  162.2893 N.ar    1  UNL1       -0.1220
     24 C         138.3930  140.2896  161.6271 C.ar    1  UNL1        0.1933
     25 N         139.3819  141.4122  161.5189 N.ar    1  UNL1       -0.2860
     26 C         140.7545  141.3234  160.9205 C.3     1  UNL1        0.1341
     27 C         141.1767  143.4723  164.1394 C.3     1  UNL1        0.0556
     28 C         140.5075  144.3758  163.1464 C.ar    1  UNL1        0.1001
     29 N         140.8331  145.8208  162.9100 N.ar    1  UNL1       -0.2085
     30 C         139.9221  146.3309  161.8330 C.ar    1  UNL1        0.2849
     31 O         139.0337  145.2012  161.4038 O.2     1  UNL1       -0.4283
     32 C         139.3955  143.9929  162.2156 C.ar    1  UNL1        0.1964
@<TRIPOS>BOND
     1    27    28    1
     2    28    29   ar
     3    29    30   ar
     4    30    31   ar
     5    31    32   ar
     6    32    21    1
     7    21    22   ar
     8    22    23   ar
     9    23    24   ar
    10    24    20    1
    11    20    19    1
    12    19    18    1
    13    18     1    1
    14     1     2    1
    15     2     3    1
    16     3     4    1
    17     4     5    1
    18     5     6    1
    19     6     8    1
    20     8     9   ar
    21     9    10   ar
    22    10    11   ar
    23    11    14    1
    24    14    15    1
    25    14    16    1
    26    14    17    1
    27    11    12   ar
    28    12    13   ar
    29     6     7    1
    30    24    25   ar
    31    25    26    1
    32    32    28   ar
    33    25    21   ar
    34     7     2    1
    35     6     4    1
    36    13     8   ar
