@<TRIPOS>MOLECULE
*****
 36 38 0 0 0
SMALL
GASTEIGER

@<TRIPOS>ATOM
      1 C         140.5021  143.0173  160.3705 C.3     1  UNL1        0.1633
      2 C         140.1807  143.1575  158.9121 C.3     1  UNL1        0.0884
      3 S         141.4743  143.1920  158.1535 S.3     1  UNL1       -0.1164
      4 C         142.5952  143.0732  159.1432 C.3     1  UNL1        0.1527
      5 N         141.9944  142.9652  160.5133 N.am    1  UNL1       -0.2623
      6 C         142.7528  142.8290  161.8003 C.2     1  UNL1        0.2280
      7 O         142.0115  142.7310  163.1008 O.2     1  UNL1       -0.2748
      8 N         139.2708  141.6415  162.1983 N.am    1  UNL1       -0.2991
      9 C         139.5061  142.9424  161.4897 C.2     1  UNL1        0.2417
     10 O         138.7455  144.1684  161.9001 O.2     1  UNL1       -0.2733
     11 H         139.7700  140.8368  161.9290 H       1  UNL1        0.1498
     12 C         138.2748  141.5665  163.3174 C.3     1  UNL1        0.1164
     13 C         139.6232  140.4283  167.4570 C.ar    1  UNL1       -0.0111
     14 C         138.6765  139.5398  166.7058 C.ar    1  UNL1       -0.0040
     15 C         138.2271  139.9192  165.3260 C.ar    1  UNL1       -0.0029
     16 C         138.7243  141.1871  164.6973 C.ar    1  UNL1       -0.0026
     17 C         139.6710  142.0756  165.4485 C.ar    1  UNL1       -0.0029
     18 C         140.1205  141.6961  166.8284 C.ar    1  UNL1       -0.0040
     19 C         140.0727  140.0489  168.8369 C.3     1  UNL1        0.1359
     20 C         139.2688  140.4721  170.0304 C.2     1  UNL1        0.3216
     21 O         137.9859  139.7676  170.3588 O.2     1  UNL1       -0.2497
     22 C         140.1178  142.9153  170.2765 C.3     1  UNL1        0.2556
     23 O         139.7478  141.6000  170.8956 O.3     1  UNL1       -0.4442
     24 C         144.2522  142.7908  161.7870 C.3     1  UNL1        0.1011
     25 C         144.9778  141.6162  162.3733 C.3     1  UNL1        0.0644
     26 N         146.2148  141.8322  163.1937 N.3     1  UNL1       -0.3215
     27 H         146.4158  142.8307  163.2494 H       1  UNL1        0.1188
     28 H         147.0009  141.3510  162.7569 H       1  UNL1        0.1188
     29 C         144.4665  140.2256  162.1391 C.3     1  UNL1        0.0446
     30 C         143.5805  139.5710  163.1571 C.ar    1  UNL1        0.0066
     31 C         142.1277  139.3503  162.8558 C.ar    1  UNL1       -0.0020
     32 C         141.2417  138.6956  163.8738 C.ar    1  UNL1       -0.0002
     33 C         141.8084  138.2616  165.1932 C.ar    1  UNL1        0.0023
     34 C         143.2611  138.4823  165.4944 C.ar    1  UNL1        0.0293
     35 C         144.1473  139.1370  164.4764 C.ar    1  UNL1        0.1362
     36 F         145.6000  139.3577  164.7776 F       1  UNL1       -0.2045
@<TRIPOS>BOND
     1    22    23    1
     2    23    20    1
     3    20    21    2
     4    20    19    1
     5    19    13    1
     6    13    14   ar
     7    14    15   ar
     8    15    16   ar
     9    16    12    1
    10    12     8    1
    11     8     9   am
    12     9    10    2
    13     1     9    1
    14     1     2    1
    15     2     3    1
    16     3     4    1
    17     4     5    1
    18     5     6   am
    19     6     7    2
    20     6    24    1
    21    24    25    1
    22    25    26    1
    23    25    29    1
    24    29    30    1
    25    30    31   ar
    26    31    32   ar
    27    32    33   ar
    28    33    34   ar
    29    34    35   ar
    30    35    36    1
    31    16    17   ar
    32    17    18   ar
    33    18    13   ar
    34     5     1    1
    35    35    30   ar
    36     8    11    1
    37    26    27    1
    38    26    28    1
@<TRIPOS>MOLECULE
*****
 36 38 0 0 0
SMALL
GASTEIGER

@<TRIPOS>ATOM
      1 C         139.3099  142.6000  160.3133 C.3     1  UNL1        0.1633
      2 C         138.8012  142.5411  158.9035 C.3     1  UNL1        0.0884
      3 S         139.9643  142.7582  157.9815 S.3     1  UNL1       -0.1164
      4 C         141.1919  142.9514  158.8216 C.3     1  UNL1        0.1527
      5 N         140.7874  142.8536  160.2627 N.am    1  UNL1       -0.2623
      6 C         141.7003  142.9861  161.4456 C.2     1  UNL1        0.2280
      7 O         141.1493  142.8643  162.8355 O.2     1  UNL1       -0.2748
      8 N         138.4349  141.1060  162.2505 N.am    1  UNL1       -0.2991
      9 C         138.4857  142.4344  161.5557 C.2     1  UNL1        0.2417
     10 O         137.7124  143.5972  162.1032 O.2     1  UNL1       -0.2733
     11 H         138.9425  140.3428  161.8911 H       1  UNL1        0.1498
     12 C         137.6108  140.9404  163.4928 C.3     1  UNL1        0.1164
     13 C         139.6304  140.3497  167.4705 C.ar    1  UNL1       -0.0111
     14 C         139.8377  141.6234  166.7059 C.ar    1  UNL1       -0.0040
     15 C         139.1645  141.8203  165.3800 C.ar    1  UNL1       -0.0029
     16 C         138.2840  140.7435  164.8187 C.ar    1  UNL1       -0.0026
     17 C         138.0767  139.4698  165.5833 C.ar    1  UNL1       -0.0029
     18 C         138.7499  139.2729  166.9092 C.ar    1  UNL1       -0.0040
     19 C         140.3036  140.1528  168.7964 C.3     1  UNL1        0.1359
     20 C         139.5552  140.4312  170.0662 C.2     1  UNL1        0.3216
     21 O         138.1741  139.8785  170.2594 O.2     1  UNL1       -0.2497
     22 C         141.6735  141.4691  171.1551 C.3     1  UNL1        0.2556
     23 O         140.1878  141.2621  171.1429 O.3     1  UNL1       -0.4442
     24 C         143.1640  143.2404  161.2387 C.3     1  UNL1        0.1011
     25 C         144.0010  143.7653  162.3673 C.3     1  UNL1        0.0644
     26 N         143.9568  145.2228  162.7190 N.3     1  UNL1       -0.3215
     27 H         143.3108  145.7041  162.0933 H       1  UNL1        0.1188
     28 H         144.8890  145.6248  162.6200 H       1  UNL1        0.1188
     29 C         144.8822  142.8327  163.1443 C.3     1  UNL1        0.0446
     30 C         144.2724  141.8141  164.0612 C.ar    1  UNL1        0.0066
     31 C         143.7495  142.2314  165.4039 C.ar    1  UNL1       -0.0020
     32 C         143.1398  141.2128  166.3208 C.ar    1  UNL1       -0.0002
     33 C         143.0528  139.7771  165.8952 C.ar    1  UNL1        0.0023
     34 C         143.5757  139.3599  164.5526 C.ar    1  UNL1        0.0293
     35 C         144.1855  140.3784  163.6355 C.ar    1  UNL1        0.1362
     36 F         144.7084  139.9612  162.2929 F       1  UNL1       -0.2045
@<TRIPOS>BOND
     1    22    23    1
     2    23    20    1
     3    20    21    2
     4    20    19    1
     5    19    13    1
     6    13    14   ar
     7    14    15   ar
     8    15    16   ar
     9    16    12    1
    10    12     8    1
    11     8     9   am
    12     9    10    2
    13     1     9    1
    14     1     2    1
    15     2     3    1
    16     3     4    1
    17     4     5    1
    18     5     6   am
    19     6     7    2
    20     6    24    1
    21    24    25    1
    22    25    26    1
    23    25    29    1
    24    29    30    1
    25    30    31   ar
    26    31    32   ar
    27    32    33   ar
    28    33    34   ar
    29    34    35   ar
    30    35    36    1
    31    16    17   ar
    32    17    18   ar
    33    18    13   ar
    34     5     1    1
    35    35    30   ar
    36     8    11    1
    37    26    27    1
    38    26    28    1
@<TRIPOS>MOLECULE
*****
 36 38 0 0 0
SMALL
GASTEIGER

@<TRIPOS>ATOM
      1 C         142.8274  139.2479  161.2276 C.3     1  UNL1        0.1633
      2 C         143.2907  138.2503  160.2076 C.3     1  UNL1        0.0884
      3 S         142.3373  138.2936  159.0505 S.3     1  UNL1       -0.1164
      4 C         141.2846  139.3179  159.3553 C.3     1  UNL1        0.1527
      5 N         141.5876  139.9076  160.7008 N.am    1  UNL1       -0.2623
      6 C         140.7906  140.9705  161.3972 C.2     1  UNL1        0.2280
      7 O         141.2179  141.4645  162.7476 O.2     1  UNL1       -0.2748
      8 N         142.9452  138.9287  163.8033 N.am    1  UNL1       -0.2991
      9 C         143.4880  139.5352  162.5433 C.2     1  UNL1        0.2417
     10 O         144.6913  140.4289  162.5991 O.2     1  UNL1       -0.2733
     11 H         142.1554  138.3420  163.7667 H       1  UNL1        0.1498
     12 C         143.6057  139.2159  165.1190 C.3     1  UNL1        0.1164
     13 C         141.5516  141.8409  168.1423 C.ar    1  UNL1       -0.0111
     14 C         141.9853  140.4563  168.5228 C.ar    1  UNL1       -0.0040
     15 C         142.6700  139.5813  167.5150 C.ar    1  UNL1       -0.0029
     16 C         142.9210  140.0909  166.1268 C.ar    1  UNL1       -0.0026
     17 C         142.4873  141.4755  165.7463 C.ar    1  UNL1       -0.0029
     18 C         141.8026  142.3505  166.7540 C.ar    1  UNL1       -0.0040
     19 C         140.8669  142.7159  169.1500 C.3     1  UNL1        0.1359
     20 C         140.4405  142.1469  170.4708 C.2     1  UNL1        0.3216
     21 O         141.3929  142.1460  171.6297 O.2     1  UNL1       -0.2497
     22 C         138.6757  140.3271  169.9014 C.3     1  UNL1        0.2556
     23 O         139.0618  141.5787  170.6327 O.3     1  UNL1       -0.4442
     24 C         139.5663  141.5394  160.7434 C.3     1  UNL1        0.1011
     25 C         138.3032  141.7081  161.5346 C.3     1  UNL1        0.0644
     26 N         137.6767  143.0645  161.6671 N.3     1  UNL1       -0.3215
     27 H         138.2379  143.7492  161.1606 H       1  UNL1        0.1188
     28 H         137.6322  143.3236  162.6527 H       1  UNL1        0.1188
     29 C         137.6665  140.5203  162.1932 C.3     1  UNL1        0.0446
     30 C         138.2100  140.0016  163.4914 C.ar    1  UNL1        0.0066
     31 C         138.2705  140.8997  164.6914 C.ar    1  UNL1       -0.0020
     32 C         138.8140  140.3810  165.9897 C.ar    1  UNL1       -0.0002
     33 C         139.2972  138.9643  166.0881 C.ar    1  UNL1        0.0023
     34 C         139.2367  138.0663  164.8881 C.ar    1  UNL1        0.0293
     35 C         138.6932  138.5849  163.5897 C.ar    1  UNL1        0.1362
     36 F         138.6327  137.6869  162.3898 F       1  UNL1       -0.2045
@<TRIPOS>BOND
     1    22    23    1
     2    23    20    1
     3    20    21    2
     4    20    19    1
     5    19    13    1
     6    13    14   ar
     7    14    15   ar
     8    15    16   ar
     9    16    12    1
    10    12     8    1
    11     8     9   am
    12     9    10    2
    13     1     9    1
    14     1     2    1
    15     2     3    1
    16     3     4    1
    17     4     5    1
    18     5     6   am
    19     6     7    2
    20     6    24    1
    21    24    25    1
    22    25    26    1
    23    25    29    1
    24    29    30    1
    25    30    31   ar
    26    31    32   ar
    27    32    33   ar
    28    33    34   ar
    29    34    35   ar
    30    35    36    1
    31    16    17   ar
    32    17    18   ar
    33    18    13   ar
    34     5     1    1
    35    35    30   ar
    36     8    11    1
    37    26    27    1
    38    26    28    1
@<TRIPOS>MOLECULE
*****
 36 38 0 0 0
SMALL
GASTEIGER

@<TRIPOS>ATOM
      1 C         140.6479  138.9122  160.6461 C.3     1  UNL1        0.1633
      2 C         140.3617  138.5597  159.2165 C.3     1  UNL1        0.0884
      3 S         141.6420  138.6796  158.4442 S.3     1  UNL1       -0.1164
      4 C         142.7195  139.1062  159.3967 C.3     1  UNL1        0.1527
      5 N         142.1051  139.2499  160.7575 N.am    1  UNL1       -0.2623
      6 C         142.8220  139.6595  162.0097 C.2     1  UNL1        0.2280
      7 O         142.0716  139.7604  163.3047 O.2     1  UNL1       -0.2748
      8 N         139.0669  140.2238  162.2368 N.am    1  UNL1       -0.2991
      9 C         139.6517  138.9246  161.7675 C.2     1  UNL1        0.2417
     10 O         139.2403  137.6380  162.4196 O.2     1  UNL1       -0.2733
     11 H         139.3369  141.0683  161.8088 H       1  UNL1        0.1498
     12 C         138.0707  140.2363  163.3581 C.3     1  UNL1        0.1164
     13 C         139.4882  140.1444  167.6281 C.ar    1  UNL1       -0.0111
     14 C         140.0012  141.1964  166.6900 C.ar    1  UNL1       -0.0040
     15 C         139.5287  141.2271  165.2667 C.ar    1  UNL1       -0.0029
     16 C         138.5432  140.2057  164.7814 C.ar    1  UNL1       -0.0026
     17 C         138.0302  139.1536  165.7195 C.ar    1  UNL1       -0.0029
     18 C         138.5027  139.1230  167.1428 C.ar    1  UNL1       -0.0040
     19 C         139.9606  140.1137  169.0514 C.3     1  UNL1        0.1359
     20 C         139.0762  140.6317  170.1466 C.2     1  UNL1        0.3216
     21 O         137.8259  139.8893  170.5152 O.2     1  UNL1       -0.2497
     22 C         140.0581  143.0370  170.1252 C.3     1  UNL1        0.2556
     23 O         139.4419  141.8919  170.8731 O.3     1  UNL1       -0.4442
     24 C         144.2893  139.9682  161.9672 C.3     1  UNL1        0.1011
     25 C         145.0132  140.3453  163.2257 C.3     1  UNL1        0.0644
     26 N         145.3704  139.2903  164.2303 N.3     1  UNL1       -0.3215
     27 H         145.0476  138.3814  163.8983 H       1  UNL1        0.1188
     28 H         144.9238  139.5047  165.1219 H       1  UNL1        0.1188
     29 C         145.3800  141.7775  163.4794 C.3     1  UNL1        0.0446
     30 C         144.3042  142.8118  163.6299 C.ar    1  UNL1        0.0066
     31 C         144.2586  143.9874  162.6992 C.ar    1  UNL1       -0.0020
     32 C         143.1828  145.0218  162.8497 C.ar    1  UNL1       -0.0002
     33 C         142.1525  144.8807  163.9308 C.ar    1  UNL1        0.0023
     34 C         142.1981  143.7052  164.8614 C.ar    1  UNL1        0.0293
     35 C         143.2739  142.6707  164.7110 C.ar    1  UNL1        0.1362
     36 F         143.3196  141.4952  165.6416 F       1  UNL1       -0.2045
@<TRIPOS>BOND
     1    22    23    1
     2    23    20    1
     3    20    21    2
     4    20    19    1
     5    19    13    1
     6    13    14   ar
     7    14    15   ar
     8    15    16   ar
     9    16    12    1
    10    12     8    1
    11     8     9   am
    12     9    10    2
    13     1     9    1
    14     1     2    1
    15     2     3    1
    16     3     4    1
    17     4     5    1
    18     5     6   am
    19     6     7    2
    20     6    24    1
    21    24    25    1
    22    25    26    1
    23    25    29    1
    24    29    30    1
    25    30    31   ar
    26    31    32   ar
    27    32    33   ar
    28    33    34   ar
    29    34    35   ar
    30    35    36    1
    31    16    17   ar
    32    17    18   ar
    33    18    13   ar
    34     5     1    1
    35    35    30   ar
    36     8    11    1
    37    26    27    1
    38    26    28    1
@<TRIPOS>MOLECULE
*****
 36 38 0 0 0
SMALL
GASTEIGER

@<TRIPOS>ATOM
      1 C         141.9929  138.7043  160.3096 C.3     1  UNL1        0.1633
      2 C         141.9709  138.1149  158.9304 C.3     1  UNL1        0.0884
      3 S         142.8647  138.9448  158.0573 S.3     1  UNL1       -0.1164
      4 C         143.4391  140.0472  158.8969 C.3     1  UNL1        0.1527
      5 N         142.9003  139.8985  160.2888 N.am    1  UNL1       -0.2623
      6 C         143.2138  140.7879  161.4553 C.2     1  UNL1        0.2280
      7 O         142.5965  140.5138  162.7946 O.2     1  UNL1       -0.2748
      8 N         141.9858  137.7159  162.7123 N.am    1  UNL1       -0.2991
      9 C         141.2397  138.1898  161.5004 C.2     1  UNL1        0.2417
     10 O         139.7404  138.1492  161.4793 O.2     1  UNL1       -0.2733
     11 H         142.9699  137.7425  162.7261 H       1  UNL1        0.1498
     12 C         141.2327  137.2014  163.9031 C.3     1  UNL1        0.1164
     13 C         140.2535  139.9688  167.3137 C.ar    1  UNL1       -0.0111
     14 C         141.6842  139.6631  166.9830 C.ar    1  UNL1       -0.0040
     15 C         142.0106  138.7406  165.8461 C.ar    1  UNL1       -0.0029
     16 C         140.9063  138.1239  165.0400 C.ar    1  UNL1       -0.0026
     17 C         139.4755  138.4296  165.3707 C.ar    1  UNL1       -0.0029
     18 C         139.1491  139.3521  166.5075 C.ar    1  UNL1       -0.0040
     19 C         139.9271  140.8913  168.4506 C.3     1  UNL1        0.1359
     20 C         139.3749  140.3378  169.7307 C.2     1  UNL1        0.3216
     21 O         138.0765  139.5867  169.7247 O.2     1  UNL1       -0.2497
     22 C         141.1409  141.6295  171.1317 C.3     1  UNL1        0.2556
     23 O         140.1211  140.5355  171.0168 O.3     1  UNL1       -0.4442
     24 C         144.1446  141.9514  161.2825 C.3     1  UNL1        0.1011
     25 C         144.8406  142.5387  162.4744 C.3     1  UNL1        0.0644
     26 N         146.0460  141.8566  163.0504 N.3     1  UNL1       -0.3215
     27 H         146.2501  141.0148  162.5118 H       1  UNL1        0.1188
     28 H         145.8617  141.6029  164.0210 H       1  UNL1        0.1188
     29 C         144.3312  143.8080  163.0902 C.3     1  UNL1        0.0446
     30 C         142.9645  143.8466  163.7070 C.ar    1  UNL1        0.0066
     31 C         141.8997  144.7228  163.1166 C.ar    1  UNL1       -0.0020
     32 C         140.5329  144.7614  163.7334 C.ar    1  UNL1       -0.0002
     33 C         140.2309  143.9238  164.9406 C.ar    1  UNL1        0.0023
     34 C         141.2956  143.0476  165.5309 C.ar    1  UNL1        0.0293
     35 C         142.6625  143.0090  164.9142 C.ar    1  UNL1        0.1362
     36 F         143.7273  142.1328  165.5046 F       1  UNL1       -0.2045
@<TRIPOS>BOND
     1    22    23    1
     2    23    20    1
     3    20    21    2
     4    20    19    1
     5    19    13    1
     6    13    14   ar
     7    14    15   ar
     8    15    16   ar
     9    16    12    1
    10    12     8    1
    11     8     9   am
    12     9    10    2
    13     1     9    1
    14     1     2    1
    15     2     3    1
    16     3     4    1
    17     4     5    1
    18     5     6   am
    19     6     7    2
    20     6    24    1
    21    24    25    1
    22    25    26    1
    23    25    29    1
    24    29    30    1
    25    30    31   ar
    26    31    32   ar
    27    32    33   ar
    28    33    34   ar
    29    34    35   ar
    30    35    36    1
    31    16    17   ar
    32    17    18   ar
    33    18    13   ar
    34     5     1    1
    35    35    30   ar
    36     8    11    1
    37    26    27    1
    38    26    28    1
@<TRIPOS>MOLECULE
*****
 36 38 0 0 0
SMALL
GASTEIGER

@<TRIPOS>ATOM
      1 C         141.5068  143.6916  160.0816 C.3     1  UNL1        0.1633
      2 C         141.5998  144.6366  158.9205 C.3     1  UNL1        0.0884
      3 S         140.3217  144.5408  158.1412 S.3     1  UNL1       -0.1164
      4 C         139.4387  143.5364  158.8209 C.3     1  UNL1        0.1527
      5 N         140.1712  143.0116  160.0201 N.am    1  UNL1       -0.2623
      6 C         139.6581  141.9868  160.9878 C.2     1  UNL1        0.2280
      7 O         140.5085  141.5575  162.1465 O.2     1  UNL1       -0.2748
      8 N         143.2684  142.1443  161.2008 N.am    1  UNL1       -0.2991
      9 C         142.5639  143.4662  161.1218 C.2     1  UNL1        0.2417
     10 O         142.9163  144.5626  162.0828 O.2     1  UNL1       -0.2733
     11 H         143.0371  141.4247  160.5700 H       1  UNL1        0.1498
     12 C         144.3255  141.9188  162.2409 C.3     1  UNL1        0.1164
     13 C         143.3240  139.6921  166.0209 C.ar    1  UNL1       -0.0111
     14 C         144.2225  139.0649  164.9967 C.ar    1  UNL1       -0.0040
     15 C         144.5563  139.8071  163.7367 C.ar    1  UNL1       -0.0029
     16 C         143.9916  141.1766  163.5009 C.ar    1  UNL1       -0.0026
     17 C         143.0931  141.8038  164.5252 C.ar    1  UNL1       -0.0029
     18 C         142.7593  141.0616  165.7852 C.ar    1  UNL1       -0.0040
     19 C         142.9901  138.9498  167.2810 C.3     1  UNL1        0.1359
     20 C         142.3232  139.6650  168.4183 C.2     1  UNL1        0.3216
     21 O         143.1436  140.1864  169.5607 O.2     1  UNL1       -0.2497
     22 C         140.2471  141.1582  168.8768 C.3     1  UNL1        0.2556
     23 O         140.8357  139.8586  168.4134 O.3     1  UNL1       -0.4442
     24 C         138.2947  141.3913  160.7969 C.3     1  UNL1        0.1011
     25 C         137.6705  140.5797  161.8931 C.3     1  UNL1        0.0644
     26 N         136.8780  141.2586  162.9706 N.3     1  UNL1       -0.3215
     27 H         136.8672  142.2645  162.8022 H       1  UNL1        0.1188
     28 H         137.3058  141.0702  163.8772 H       1  UNL1        0.1188
     29 C         137.8388  139.0893  161.9117 C.3     1  UNL1        0.0446
     30 C         138.9419  138.4691  162.7170 C.ar    1  UNL1        0.0066
     31 C         138.7685  138.2631  164.1927 C.ar    1  UNL1       -0.0020
     32 C         139.8716  137.6428  164.9980 C.ar    1  UNL1       -0.0002
     33 C         141.1480  137.2286  164.3276 C.ar    1  UNL1        0.0023
     34 C         141.3213  137.4347  162.8520 C.ar    1  UNL1        0.0293
     35 C         140.2182  138.0549  162.0466 C.ar    1  UNL1        0.1362
     36 F         140.3915  138.2610  160.5710 F       1  UNL1       -0.2045
@<TRIPOS>BOND
     1    22    23    1
     2    23    20    1
     3    20    21    2
     4    20    19    1
     5    19    13    1
     6    13    14   ar
     7    14    15   ar
     8    15    16   ar
     9    16    12    1
    10    12     8    1
    11     8     9   am
    12     9    10    2
    13     1     9    1
    14     1     2    1
    15     2     3    1
    16     3     4    1
    17     4     5    1
    18     5     6   am
    19     6     7    2
    20     6    24    1
    21    24    25    1
    22    25    26    1
    23    25    29    1
    24    29    30    1
    25    30    31   ar
    26    31    32   ar
    27    32    33   ar
    28    33    34   ar
    29    34    35   ar
    30    35    36    1
    31    16    17   ar
    32    17    18   ar
    33    18    13   ar
    34     5     1    1
    35    35    30   ar
    36     8    11    1
    37    26    27    1
    38    26    28    1
@<TRIPOS>MOLECULE
*****
 36 38 0 0 0
SMALL
GASTEIGER

@<TRIPOS>ATOM
      1 C         142.2981  139.1388  161.1768 C.3     1  UNL1        0.1633
      2 C         143.1038  138.6048  160.0298 C.3     1  UNL1        0.0884
      3 S         143.1139  139.6431  158.9473 S.3     1  UNL1       -0.1164
      4 C         142.3144  140.8188  159.4254 C.3     1  UNL1        0.1527
      5 N         141.8102  140.5071  160.8033 N.am    1  UNL1       -0.2623
      6 C         140.9663  141.4060  161.6576 C.2     1  UNL1        0.2280
      7 O         140.5357  140.9561  163.0223 O.2     1  UNL1       -0.2748
      8 N         142.6704  138.9091  163.7378 N.am    1  UNL1       -0.2991
      9 C         142.0277  138.4289  162.4704 C.2     1  UNL1        0.2417
     10 O         141.1148  137.2391  162.4964 O.2     1  UNL1       -0.2733
     11 H         143.2696  139.6900  163.7207 H       1  UNL1        0.1498
     12 C         142.4001  138.1993  165.0313 C.3     1  UNL1        0.1164
     13 C         140.3650  140.3707  168.4068 C.ar    1  UNL1       -0.0111
     14 C         141.8080  139.9797  168.5284 C.ar    1  UNL1       -0.0040
     15 C         142.4864  139.2559  167.4032 C.ar    1  UNL1       -0.0029
     16 C         141.7217  138.9231  166.1565 C.ar    1  UNL1       -0.0026
     17 C         140.2787  139.3141  166.0348 C.ar    1  UNL1       -0.0029
     18 C         139.6004  140.0379  167.1600 C.ar    1  UNL1       -0.0040
     19 C         139.6867  141.0945  169.5319 C.3     1  UNL1        0.1359
     20 C         140.4883  141.5788  170.7035 C.2     1  UNL1        0.3216
     21 O         140.6523  140.7060  171.9124 O.2     1  UNL1       -0.2497
     22 C         140.5149  144.0295  169.8413 C.3     1  UNL1        0.2556
     23 O         141.1261  142.9360  170.6664 O.3     1  UNL1       -0.4442
     24 C         140.5531  142.7546  161.1474 C.3     1  UNL1        0.1011
     25 C         141.4331  143.9467  161.3805 C.3     1  UNL1        0.0644
     26 N         142.2948  144.4713  160.2705 N.3     1  UNL1       -0.3215
     27 H         142.1576  143.9019  159.4354 H       1  UNL1        0.1188
     28 H         143.2743  144.4310  160.5523 H       1  UNL1        0.1188
     29 C         141.4515  144.6142  162.7237 C.3     1  UNL1        0.0446
     30 C         142.1865  143.9792  163.8668 C.ar    1  UNL1        0.0066
     31 C         141.4219  143.3201  164.9764 C.ar    1  UNL1       -0.0020
     32 C         142.1569  142.6851  166.1194 C.ar    1  UNL1       -0.0002
     33 C         143.6563  142.7093  166.1530 C.ar    1  UNL1        0.0023
     34 C         144.4208  143.3684  165.0435 C.ar    1  UNL1        0.0293
     35 C         143.6859  144.0034  163.9003 C.ar    1  UNL1        0.1362
     36 F         144.4504  144.6625  162.7907 F       1  UNL1       -0.2045
@<TRIPOS>BOND
     1    22    23    1
     2    23    20    1
     3    20    21    2
     4    20    19    1
     5    19    13    1
     6    13    14   ar
     7    14    15   ar
     8    15    16   ar
     9    16    12    1
    10    12     8    1
    11     8     9   am
    12     9    10    2
    13     1     9    1
    14     1     2    1
    15     2     3    1
    16     3     4    1
    17     4     5    1
    18     5     6   am
    19     6     7    2
    20     6    24    1
    21    24    25    1
    22    25    26    1
    23    25    29    1
    24    29    30    1
    25    30    31   ar
    26    31    32   ar
    27    32    33   ar
    28    33    34   ar
    29    34    35   ar
    30    35    36    1
    31    16    17   ar
    32    17    18   ar
    33    18    13   ar
    34     5     1    1
    35    35    30   ar
    36     8    11    1
    37    26    27    1
    38    26    28    1
@<TRIPOS>MOLECULE
*****
 36 38 0 0 0
SMALL
GASTEIGER

@<TRIPOS>ATOM
      1 C         139.5443  140.2229  160.5717 C.3     1  UNL1        0.1633
      2 C         138.5664  140.2832  159.4359 C.3     1  UNL1        0.0884
      3 S         138.9726  141.4107  158.5338 S.3     1  UNL1       -0.1164
      4 C         140.2016  142.0473  159.1122 C.3     1  UNL1        0.1527
      5 N         140.5549  141.3131  160.3716 N.am    1  UNL1       -0.2623
      6 C         141.7152  141.6161  161.2727 C.2     1  UNL1        0.2280
      7 O         141.9435  140.7910  162.5045 O.2     1  UNL1       -0.2748
      8 N         139.1386  139.7039  163.0849 N.am    1  UNL1       -0.2991
      9 C         139.5165  139.2441  161.7080 C.2     1  UNL1        0.2417
     10 O         139.8666  137.8055  161.4675 O.2     1  UNL1       -0.2733
     11 H         138.9089  140.6482  163.2427 H       1  UNL1        0.1498
     12 C         139.1108  138.7252  164.2212 C.3     1  UNL1        0.1164
     13 C         140.7709  139.8928  168.2375 C.ar    1  UNL1       -0.0111
     14 C         141.7013  139.5342  167.1169 C.ar    1  UNL1       -0.0040
     15 C         141.1479  139.1451  165.7781 C.ar    1  UNL1       -0.0029
     16 C         139.6642  139.1144  165.5600 C.ar    1  UNL1       -0.0026
     17 C         138.7338  139.4729  166.6806 C.ar    1  UNL1       -0.0029
     18 C         139.2872  139.8621  168.0194 C.ar    1  UNL1       -0.0040
     19 C         141.3243  140.2820  169.5763 C.3     1  UNL1        0.1359
     20 C         140.3948  140.5548  170.7215 C.2     1  UNL1        0.3216
     21 O         139.5953  139.4363  171.3215 O.2     1  UNL1       -0.2497
     22 C         140.0407  143.0993  170.3342 C.3     1  UNL1        0.2556
     23 O         140.2647  141.9461  171.2669 O.3     1  UNL1       -0.4442
     24 C         142.6471  142.7440  160.9422 C.3     1  UNL1        0.1011
     25 C         142.3204  144.1403  161.3821 C.3     1  UNL1        0.0644
     26 N         141.7571  145.1237  160.3995 N.3     1  UNL1       -0.3215
     27 H         141.6627  144.6769  159.4875 H       1  UNL1        0.1188
     28 H         142.3841  145.9246  160.3226 H       1  UNL1        0.1188
     29 C         142.5571  144.5532  162.8046 C.3     1  UNL1        0.0446
     30 C         141.5434  144.2232  163.8599 C.ar    1  UNL1        0.0066
     31 C         141.8705  143.2204  164.9265 C.ar    1  UNL1       -0.0020
     32 C         140.8568  142.8905  165.9818 C.ar    1  UNL1       -0.0002
     33 C         139.5162  143.5632  165.9706 C.ar    1  UNL1        0.0023
     34 C         139.1892  144.5660  164.9040 C.ar    1  UNL1        0.0293
     35 C         140.2028  144.8960  163.8486 C.ar    1  UNL1        0.1362
     36 F         139.8759  145.8988  162.7821 F       1  UNL1       -0.2045
@<TRIPOS>BOND
     1    22    23    1
     2    23    20    1
     3    20    21    2
     4    20    19    1
     5    19    13    1
     6    13    14   ar
     7    14    15   ar
     8    15    16   ar
     9    16    12    1
    10    12     8    1
    11     8     9   am
    12     9    10    2
    13     1     9    1
    14     1     2    1
    15     2     3    1
    16     3     4    1
    17     4     5    1
    18     5     6   am
    19     6     7    2
    20     6    24    1
    21    24    25    1
    22    25    26    1
    23    25    29    1
    24    29    30    1
    25    30    31   ar
    26    31    32   ar
    27    32    33   ar
    28    33    34   ar
    29    34    35   ar
    30    35    36    1
    31    16    17   ar
    32    17    18   ar
    33    18    13   ar
    34     5     1    1
    35    35    30   ar
    36     8    11    1
    37    26    27    1
    38    26    28    1
@<TRIPOS>MOLECULE
*****
 36 38 0 0 0
SMALL
GASTEIGER

@<TRIPOS>ATOM
      1 C         138.8697  140.4786  160.7453 C.3     1  UNL1        0.1633
      2 C         138.1623  139.9268  159.5431 C.3     1  UNL1        0.0884
      3 S         139.1489  139.8589  158.4153 S.3     1  UNL1       -0.1164
      4 C         140.4661  140.3687  158.9205 C.3     1  UNL1        0.1527
      5 N         140.2935  140.7517  160.3604 N.am    1  UNL1       -0.2623
      6 C         141.3579  141.3098  161.2579 C.2     1  UNL1        0.2280
      7 O         141.0356  141.6476  162.6835 O.2     1  UNL1       -0.2748
      8 N         138.7075  139.9021  163.2734 N.am    1  UNL1       -0.2991
      9 C         138.2602  140.7157  162.0953 C.2     1  UNL1        0.2417
     10 O         137.2035  141.7663  162.2671 O.2     1  UNL1       -0.2733
     11 H         139.4011  139.2125  163.1606 H       1  UNL1        0.1498
     12 C         138.0981  140.1391  164.6233 C.3     1  UNL1        0.1164
     13 C         140.5122  142.1153  167.8663 C.ar    1  UNL1       -0.0111
     14 C         139.9733  140.7305  168.0707 C.ar    1  UNL1       -0.0040
     15 C         139.1686  140.0718  166.9897 C.ar    1  UNL1       -0.0029
     16 C         138.9028  140.7978  165.7043 C.ar    1  UNL1       -0.0026
     17 C         139.4418  142.1826  165.5000 C.ar    1  UNL1       -0.0029
     18 C         140.2464  142.8414  166.5810 C.ar    1  UNL1       -0.0040
     19 C         141.3169  142.7740  168.9473 C.3     1  UNL1        0.1359
     20 C         140.6350  143.2984  170.1761 C.2     1  UNL1        0.3216
     21 O         140.1287  144.7101  170.2083 O.2     1  UNL1       -0.2497
     22 C         141.0986  141.0545  171.4008 C.3     1  UNL1        0.2556
     23 O         140.4593  142.4112  171.3727 O.3     1  UNL1       -0.4442
     24 C         142.7446  141.5300  160.7301 C.3     1  UNL1        0.1011
     25 C         143.7708  140.4416  160.8402 C.3     1  UNL1        0.0644
     26 N         143.9984  139.5062  159.6899 N.3     1  UNL1       -0.3215
     27 H         143.3745  139.7537  158.9219 H       1  UNL1        0.1188
     28 H         143.8085  138.5491  159.9872 H       1  UNL1        0.1188
     29 C         144.5694  140.2885  162.1007 C.3     1  UNL1        0.0446
     30 C         143.8790  139.9574  163.3905 C.ar    1  UNL1        0.0066
     31 C         143.9229  140.9263  164.5349 C.ar    1  UNL1       -0.0020
     32 C         143.2325  140.5952  165.8247 C.ar    1  UNL1       -0.0002
     33 C         142.4980  139.2954  165.9703 C.ar    1  UNL1        0.0023
     34 C         142.4541  138.3267  164.8259 C.ar    1  UNL1        0.0293
     35 C         143.1445  138.6576  163.5360 C.ar    1  UNL1        0.1362
     36 F         143.1006  137.6889  162.3916 F       1  UNL1       -0.2045
@<TRIPOS>BOND
     1    22    23    1
     2    23    20    1
     3    20    21    2
     4    20    19    1
     5    19    13    1
     6    13    14   ar
     7    14    15   ar
     8    15    16   ar
     9    16    12    1
    10    12     8    1
    11     8     9   am
    12     9    10    2
    13     1     9    1
    14     1     2    1
    15     2     3    1
    16     3     4    1
    17     4     5    1
    18     5     6   am
    19     6     7    2
    20     6    24    1
    21    24    25    1
    22    25    26    1
    23    25    29    1
    24    29    30    1
    25    30    31   ar
    26    31    32   ar
    27    32    33   ar
    28    33    34   ar
    29    34    35   ar
    30    35    36    1
    31    16    17   ar
    32    17    18   ar
    33    18    13   ar
    34     5     1    1
    35    35    30   ar
    36     8    11    1
    37    26    27    1
    38    26    28    1
