@<TRIPOS>MOLECULE
*****
 29 32 0 0 0
SMALL
GASTEIGER

@<TRIPOS>ATOM
      1 O         143.6609  142.5900  166.8853 O.3     1  UNL1       -0.3768
      2 C         142.4708  142.1693  166.0751 C.3     1  UNL1        0.1456
      3 H         144.3025  143.0355  166.3101 H       1  UNL1        0.2112
      4 C         141.8392  141.5874  167.3049 C.ar    1  UNL1        0.0264
      5 C         140.6793  142.2833  167.9533 C.ar    1  UNL1        0.0015
      6 C         140.0477  141.7014  169.1831 C.ar    1  UNL1        0.0204
      7 C         140.5760  140.4237  169.7647 C.ar    1  UNL1        0.0989
      8 N         141.7360  139.7277  169.1163 N.ar    1  UNL1       -0.2426
      9 C         142.3675  140.3097  167.8864 C.ar    1  UNL1        0.0972
     10 C         143.1024  142.7512  164.8452 C.ar    1  UNL1        0.0264
     11 C         143.0974  144.2356  164.6303 C.ar    1  UNL1        0.0015
     12 C         143.7289  144.8175  163.4004 C.ar    1  UNL1        0.0204
     13 C         144.3655  143.9149  162.3855 C.ar    1  UNL1        0.0989
     14 N         144.3705  142.4304  162.6004 N.ar    1  UNL1       -0.2426
     15 C         143.7389  141.8484  163.8303 C.ar    1  UNL1        0.0972
     16 C         141.2807  141.7485  165.2648 C.3     1  UNL1        0.1131
     17 N         140.9608  140.2921  165.1024 N.3     1  UNL1       -0.2657
     18 C         142.0711  139.4377  164.5664 C.3     1  UNL1        0.0751
     19 C         142.0677  137.9628  164.2931 C.3     1  UNL1        0.0494
     20 C         140.9533  136.9780  164.4883 C.3     1  UNL1        0.1437
     21 O         139.5669  137.2248  165.0051 O.3     1  UNL1       -0.3522
     22 C         138.9526  138.5175  165.4543 C.3     1  UNL1        0.1594
     23 C         139.5730  139.8825  165.4976 C.3     1  UNL1        0.1048
     24 C         140.4103  142.7843  164.6169 C.ar    1  UNL1       -0.0049
     25 C         139.7143  143.8122  165.4588 C.ar    1  UNL1       -0.0029
     26 C         138.8440  144.8479  164.8109 C.ar    1  UNL1       -0.0003
     27 C         138.6698  144.8557  163.3210 C.ar    1  UNL1       -0.0000
     28 C         139.3658  143.8278  162.4791 C.ar    1  UNL1       -0.0003
     29 C         140.2361  142.7921  163.1270 C.ar    1  UNL1       -0.0029
@<TRIPOS>BOND
     1     1     2    1
     2     2     4    1
     3     4     5   ar
     4     5     6   ar
     5     6     7   ar
     6     7     8   ar
     7     8     9   ar
     8     2    10    1
     9    10    11   ar
    10    11    12   ar
    11    12    13   ar
    12    13    14   ar
    13    14    15   ar
    14     2    16    1
    15    16    24    1
    16    24    25   ar
    17    25    26   ar
    18    26    27   ar
    19    27    28   ar
    20    28    29   ar
    21    16    17    1
    22    17    18    1
    23    18    19    1
    24    19    20    1
    25    20    21    1
    26    21    22    1
    27    22    23    1
    28     9     4   ar
    29    15    10   ar
    30    29    24   ar
    31    23    17    1
    32     1     3    1
@<TRIPOS>MOLECULE
*****
 29 32 0 0 0
SMALL
GASTEIGER

@<TRIPOS>ATOM
      1 O         143.6539  142.5907  166.8829 O.3     1  UNL1       -0.3768
      2 C         142.4655  142.1680  166.0712 C.3     1  UNL1        0.1456
      3 H         143.5245  142.3267  167.8073 H       1  UNL1        0.2112
      4 C         143.0979  142.7504  164.8420 C.ar    1  UNL1        0.0264
      5 C         143.0936  144.2351  164.6279 C.ar    1  UNL1        0.0015
      6 C         143.7260  144.8175  163.3988 C.ar    1  UNL1        0.0204
      7 C         144.3629  143.9153  162.3837 C.ar    1  UNL1        0.0989
      8 N         144.3673  142.4306  162.5978 N.ar    1  UNL1       -0.2426
      9 C         143.7348  141.8483  163.8269 C.ar    1  UNL1        0.0972
     10 C         141.8330  141.5856  167.3003 C.ar    1  UNL1        0.0264
     11 C         140.6674  142.2768  167.9433 C.ar    1  UNL1        0.0015
     12 C         140.0350  141.6944  169.1724 C.ar    1  UNL1        0.0204
     13 C         140.5681  140.4208  169.7585 C.ar    1  UNL1        0.0989
     14 N         141.7338  139.7295  169.1156 N.ar    1  UNL1       -0.2426
     15 C         142.3663  140.3119  167.8864 C.ar    1  UNL1        0.0972
     16 C         141.2771  141.7453  165.2594 C.3     1  UNL1        0.1131
     17 N         140.9596  140.2884  165.0968 N.3     1  UNL1       -0.2657
     18 C         142.0730  139.4350  164.5656 C.3     1  UNL1        0.0751
     19 C         142.0725  137.9599  164.2934 C.3     1  UNL1        0.0494
     20 C         140.9585  136.9739  164.4850 C.3     1  UNL1        0.1437
     21 O         139.5698  137.2194  164.9962 O.3     1  UNL1       -0.3522
     22 C         138.9522  138.5116  165.4421 C.3     1  UNL1        0.1594
     23 C         139.5707  139.8774  165.4868 C.3     1  UNL1        0.1048
     24 C         140.4061  142.7797  164.6102 C.ar    1  UNL1       -0.0049
     25 C         139.7080  143.8073  165.4509 C.ar    1  UNL1       -0.0029
     26 C         138.8371  144.8416  164.8016 C.ar    1  UNL1       -0.0003
     27 C         138.6642  144.8484  163.3117 C.ar    1  UNL1       -0.0000
     28 C         139.3621  143.8208  162.4709 C.ar    1  UNL1       -0.0003
     29 C         140.2331  142.7865  163.1201 C.ar    1  UNL1       -0.0029
@<TRIPOS>BOND
     1     1     2    1
     2     2     4    1
     3     4     5   ar
     4     5     6   ar
     5     6     7   ar
     6     7     8   ar
     7     8     9   ar
     8     2    10    1
     9    10    11   ar
    10    11    12   ar
    11    12    13   ar
    12    13    14   ar
    13    14    15   ar
    14     2    16    1
    15    16    24    1
    16    24    25   ar
    17    25    26   ar
    18    26    27   ar
    19    27    28   ar
    20    28    29   ar
    21    16    17    1
    22    17    18    1
    23    18    19    1
    24    19    20    1
    25    20    21    1
    26    21    22    1
    27    22    23    1
    28     9     4   ar
    29    15    10   ar
    30    29    24   ar
    31    23    17    1
    32     1     3    1
@<TRIPOS>MOLECULE
*****
 29 32 0 0 0
SMALL
GASTEIGER

@<TRIPOS>ATOM
      1 O         143.3945  141.6828  167.1950 O.3     1  UNL1       -0.3768
      2 C         142.3038  141.4621  166.1892 C.3     1  UNL1        0.1456
      3 H         143.0235  141.6351  168.0900 H       1  UNL1        0.2112
      4 C         143.2979  141.6185  165.0769 C.ar    1  UNL1        0.0264
      5 C         144.2334  140.4943  164.7434 C.ar    1  UNL1        0.0015
      6 C         145.2275  140.6507  163.6311 C.ar    1  UNL1        0.0204
      7 C         145.2862  141.9312  162.8522 C.ar    1  UNL1        0.0989
      8 N         144.3507  143.0555  163.1856 N.ar    1  UNL1       -0.2426
      9 C         143.3566  142.8990  164.2980 C.ar    1  UNL1        0.0972
     10 C         141.3097  141.3057  167.3015 C.ar    1  UNL1        0.0264
     11 C         141.0206  142.4585  168.2166 C.ar    1  UNL1        0.0015
     12 C         140.0265  142.3021  169.3289 C.ar    1  UNL1        0.0204
     13 C         139.3215  140.9929  169.5261 C.ar    1  UNL1        0.0989
     14 N         139.6105  139.8400  168.6111 N.ar    1  UNL1       -0.2426
     15 C         140.6047  139.9964  167.4987 C.ar    1  UNL1        0.0972
     16 C         141.2131  141.2413  165.1834 C.3     1  UNL1        0.1131
     17 N         141.2260  140.0147  164.3202 N.3     1  UNL1       -0.2657
     18 C         141.2867  140.2599  162.8416 C.3     1  UNL1        0.0751
     19 C         141.3129  139.2560  161.7274 C.3     1  UNL1        0.0494
     20 C         141.2847  137.7590  161.8165 C.3     1  UNL1        0.1437
     21 O         141.2234  136.8960  163.0419 O.3     1  UNL1       -0.3522
     22 C         141.1752  137.3170  164.4808 C.3     1  UNL1        0.1594
     23 C         141.1763  138.7050  165.0497 C.3     1  UNL1        0.1048
     24 C         140.1096  142.2473  165.0408 C.ar    1  UNL1       -0.0049
     25 C         138.7006  141.7874  164.8104 C.ar    1  UNL1       -0.0029
     26 C         137.5972  142.7934  164.6678 C.ar    1  UNL1       -0.0003
     27 C         137.9027  144.2593  164.7558 C.ar    1  UNL1       -0.0000
     28 C         139.3117  144.7192  164.9863 C.ar    1  UNL1       -0.0003
     29 C         140.4152  143.7133  165.1288 C.ar    1  UNL1       -0.0029
@<TRIPOS>BOND
     1     1     2    1
     2     2     4    1
     3     4     5   ar
     4     5     6   ar
     5     6     7   ar
     6     7     8   ar
     7     8     9   ar
     8     2    10    1
     9    10    11   ar
    10    11    12   ar
    11    12    13   ar
    12    13    14   ar
    13    14    15   ar
    14     2    16    1
    15    16    24    1
    16    24    25   ar
    17    25    26   ar
    18    26    27   ar
    19    27    28   ar
    20    28    29   ar
    21    16    17    1
    22    17    18    1
    23    18    19    1
    24    19    20    1
    25    20    21    1
    26    21    22    1
    27    22    23    1
    28     9     4   ar
    29    15    10   ar
    30    29    24   ar
    31    23    17    1
    32     1     3    1
@<TRIPOS>MOLECULE
*****
 29 32 0 0 0
SMALL
GASTEIGER

@<TRIPOS>ATOM
      1 O         143.3930  141.6866  167.1852 O.3     1  UNL1       -0.3768
      2 C         142.3006  141.4653  166.1814 C.3     1  UNL1        0.1456
      3 H         144.2334  141.8298  166.7224 H       1  UNL1        0.2112
      4 C         141.3086  141.3088  167.2955 C.ar    1  UNL1        0.0264
      5 C         141.0240  142.4603  168.2137 C.ar    1  UNL1        0.0015
      6 C         140.0319  142.3038  169.3278 C.ar    1  UNL1        0.0204
      7 C         139.3244  140.9958  169.5238 C.ar    1  UNL1        0.0989
      8 N         139.6089  139.8442  168.6057 N.ar    1  UNL1       -0.2426
      9 C         140.6010  140.0008  167.4916 C.ar    1  UNL1        0.0972
     10 C         143.2927  141.6217  165.0673 C.ar    1  UNL1        0.0264
     11 C         144.2336  140.5010  164.7380 C.ar    1  UNL1        0.0015
     12 C         145.2257  140.6575  163.6238 C.ar    1  UNL1        0.0204
     13 C         145.2769  141.9347  162.8391 C.ar    1  UNL1        0.0989
     14 N         144.3360  143.0556  163.1684 N.ar    1  UNL1       -0.2426
     15 C         143.3439  142.8991  164.2826 C.ar    1  UNL1        0.0972
     16 C         141.2083  141.2439  165.1776 C.3     1  UNL1        0.1131
     17 N         141.2198  140.0169  164.3150 N.3     1  UNL1       -0.2657
     18 C         141.2666  140.2615  162.8358 C.3     1  UNL1        0.0751
     19 C         141.2882  139.2571  161.7219 C.3     1  UNL1        0.0494
     20 C         141.2682  137.7600  161.8121 C.3     1  UNL1        0.1437
     21 O         141.2217  136.8974  163.0384 O.3     1  UNL1       -0.3522
     22 C         141.1838  137.3190  164.4775 C.3     1  UNL1        0.1594
     23 C         141.1829  138.7073  165.0456 C.3     1  UNL1        0.1048
     24 C         140.1044  142.2496  165.0365 C.ar    1  UNL1       -0.0049
     25 C         138.6955  141.7896  164.8058 C.ar    1  UNL1       -0.0029
     26 C         137.5917  142.7953  164.6647 C.ar    1  UNL1       -0.0003
     27 C         137.8968  144.2612  164.7543 C.ar    1  UNL1       -0.0000
     28 C         139.3056  144.7214  164.9850 C.ar    1  UNL1       -0.0003
     29 C         140.4095  143.7156  165.1261 C.ar    1  UNL1       -0.0029
@<TRIPOS>BOND
     1     1     2    1
     2     2     4    1
     3     4     5   ar
     4     5     6   ar
     5     6     7   ar
     6     7     8   ar
     7     8     9   ar
     8     2    10    1
     9    10    11   ar
    10    11    12   ar
    11    12    13   ar
    12    13    14   ar
    13    14    15   ar
    14     2    16    1
    15    16    24    1
    16    24    25   ar
    17    25    26   ar
    18    26    27   ar
    19    27    28   ar
    20    28    29   ar
    21    16    17    1
    22    17    18    1
    23    18    19    1
    24    19    20    1
    25    20    21    1
    26    21    22    1
    27    22    23    1
    28     9     4   ar
    29    15    10   ar
    30    29    24   ar
    31    23    17    1
    32     1     3    1
@<TRIPOS>MOLECULE
*****
 29 32 0 0 0
SMALL
GASTEIGER

@<TRIPOS>ATOM
      1 O         140.3412  137.6831  165.0499 O.3     1  UNL1       -0.3768
      2 C         140.6577  139.0939  164.6506 C.3     1  UNL1        0.1456
      3 H         139.9377  137.2178  164.3006 H       1  UNL1        0.2112
      4 C         141.2077  139.3584  166.0209 C.ar    1  UNL1        0.0264
      5 C         140.4125  140.1630  167.0059 C.ar    1  UNL1        0.0015
      6 C         140.9625  140.4274  168.3761 C.ar    1  UNL1        0.0204
      7 C         142.3077  139.8873  168.7614 C.ar    1  UNL1        0.0989
      8 N         143.1030  139.0826  167.7764 N.ar    1  UNL1       -0.2426
      9 C         142.5530  138.8182  166.4062 C.ar    1  UNL1        0.0972
     10 C         140.1077  138.8295  163.2804 C.ar    1  UNL1        0.0264
     11 C         138.6265  138.7081  163.0774 C.ar    1  UNL1        0.0015
     12 C         138.0765  138.4437  161.7072 C.ar    1  UNL1        0.0204
     13 C         139.0077  138.3006  160.5400 C.ar    1  UNL1        0.0989
     14 N         140.4889  138.4220  160.7429 N.ar    1  UNL1       -0.2426
     15 C         141.0390  138.6864  162.1132 C.ar    1  UNL1        0.0972
     16 C         140.9742  140.5047  164.2513 C.3     1  UNL1        0.1131
     17 N         142.3972  140.9787  164.2364 N.3     1  UNL1       -0.2657
     18 C         143.3516  140.1479  163.4308 C.3     1  UNL1        0.0751
     19 C         144.8221  140.3541  163.2189 C.3     1  UNL1        0.0494
     20 C         145.7016  141.4419  163.7602 C.3     1  UNL1        0.1437
     21 O         145.3277  142.5924  164.6472 O.3     1  UNL1       -0.3522
     22 C         143.9819  142.9391  165.2118 C.3     1  UNL1        0.1594
     23 C         142.6778  142.2209  165.0290 C.3     1  UNL1        0.1048
     24 C         139.8675  141.4415  163.8670 C.ar    1  UNL1       -0.0049
     25 C         139.8699  142.0905  162.5147 C.ar    1  UNL1       -0.0029
     26 C         138.7632  143.0273  162.1305 C.ar    1  UNL1       -0.0003
     27 C         137.6542  143.3151  163.0985 C.ar    1  UNL1       -0.0000
     28 C         137.6518  142.6661  164.4508 C.ar    1  UNL1       -0.0003
     29 C         138.7584  141.7293  164.8352 C.ar    1  UNL1       -0.0029
@<TRIPOS>BOND
     1     1     2    1
     2     2     4    1
     3     4     5   ar
     4     5     6   ar
     5     6     7   ar
     6     7     8   ar
     7     8     9   ar
     8     2    10    1
     9    10    11   ar
    10    11    12   ar
    11    12    13   ar
    12    13    14   ar
    13    14    15   ar
    14     2    16    1
    15    16    24    1
    16    24    25   ar
    17    25    26   ar
    18    26    27   ar
    19    27    28   ar
    20    28    29   ar
    21    16    17    1
    22    17    18    1
    23    18    19    1
    24    19    20    1
    25    20    21    1
    26    21    22    1
    27    22    23    1
    28     9     4   ar
    29    15    10   ar
    30    29    24   ar
    31    23    17    1
    32     1     3    1
@<TRIPOS>MOLECULE
*****
 29 32 0 0 0
SMALL
GASTEIGER

@<TRIPOS>ATOM
      1 O         140.3268  137.7130  165.1131 O.3     1  UNL1       -0.3768
      2 C         140.6481  139.1177  164.6965 C.3     1  UNL1        0.1456
      3 H         140.5889  137.5820  166.0377 H       1  UNL1        0.2112
      4 C         140.1046  138.8359  163.3271 C.ar    1  UNL1        0.0264
      5 C         138.6233  138.7322  163.1147 C.ar    1  UNL1        0.0015
      6 C         138.0799  138.4504  161.7454 C.ar    1  UNL1        0.0204
      7 C         139.0176  138.2723  160.5883 C.ar    1  UNL1        0.0989
      8 N         140.4989  138.3759  160.8006 N.ar    1  UNL1       -0.2426
      9 C         141.0424  138.6577  162.1700 C.ar    1  UNL1        0.0972
     10 C         141.1916  139.3995  166.0658 C.ar    1  UNL1        0.0264
     11 C         140.3894  140.2118  167.0386 C.ar    1  UNL1        0.0015
     12 C         140.9329  140.4936  168.4080 C.ar    1  UNL1        0.0204
     13 C         142.2786  139.9630  168.8046 C.ar    1  UNL1        0.0989
     14 N         143.0810  139.1506  167.8318 N.ar    1  UNL1       -0.2426
     15 C         142.5375  138.8688  166.4624 C.ar    1  UNL1        0.0972
     16 C         140.9694  140.5224  164.2799 C.3     1  UNL1        0.1131
     17 N         142.3940  140.9914  164.2596 N.3     1  UNL1       -0.2657
     18 C         143.3450  140.1501  163.4609 C.3     1  UNL1        0.0751
     19 C         144.8161  140.3494  163.2461 C.3     1  UNL1        0.0494
     20 C         145.6996  141.4391  163.7769 C.3     1  UNL1        0.1437
     21 O         145.3303  142.5988  164.6536 O.3     1  UNL1       -0.3522
     22 C         143.9861  142.9551  165.2161 C.3     1  UNL1        0.1594
     23 C         142.6794  142.2398  165.0408 C.3     1  UNL1        0.1048
     24 C         139.8660  141.4580  163.8836 C.ar    1  UNL1       -0.0049
     25 C         139.8761  142.0977  162.5269 C.ar    1  UNL1       -0.0029
     26 C         138.7727  143.0333  162.1307 C.ar    1  UNL1       -0.0003
     27 C         137.6592  143.3293  163.0912 C.ar    1  UNL1       -0.0000
     28 C         137.6491  142.6897  164.4479 C.ar    1  UNL1       -0.0003
     29 C         138.7525  141.7540  164.8442 C.ar    1  UNL1       -0.0029
@<TRIPOS>BOND
     1     1     2    1
     2     2     4    1
     3     4     5   ar
     4     5     6   ar
     5     6     7   ar
     6     7     8   ar
     7     8     9   ar
     8     2    10    1
     9    10    11   ar
    10    11    12   ar
    11    12    13   ar
    12    13    14   ar
    13    14    15   ar
    14     2    16    1
    15    16    24    1
    16    24    25   ar
    17    25    26   ar
    18    26    27   ar
    19    27    28   ar
    20    28    29   ar
    21    16    17    1
    22    17    18    1
    23    18    19    1
    24    19    20    1
    25    20    21    1
    26    21    22    1
    27    22    23    1
    28     9     4   ar
    29    15    10   ar
    30    29    24   ar
    31    23    17    1
    32     1     3    1
@<TRIPOS>MOLECULE
*****
 29 32 0 0 0
SMALL
GASTEIGER

@<TRIPOS>ATOM
      1 O         140.0811  139.0466  166.4091 O.3     1  UNL1       -0.3768
      2 C         140.6018  140.1556  165.5437 C.3     1  UNL1        0.1456
      3 H         139.6407  138.3835  165.8548 H       1  UNL1        0.2112
      4 C         141.1400  140.8511  166.7589 C.ar    1  UNL1        0.0264
      5 C         142.3704  140.3281  167.4391 C.ar    1  UNL1        0.0015
      6 C         142.9086  141.0235  168.6543 C.ar    1  UNL1        0.0204
      7 C         142.2166  142.2420  169.1892 C.ar    1  UNL1        0.0989
      8 N         140.9862  142.7651  168.5090 N.ar    1  UNL1       -0.2426
      9 C         140.4480  142.0696  167.2938 C.ar    1  UNL1        0.0972
     10 C         140.0636  139.4602  164.3286 C.ar    1  UNL1        0.0264
     11 C         140.9887  138.6895  163.4341 C.ar    1  UNL1        0.0015
     12 C         140.4504  137.9940  162.2189 C.ar    1  UNL1        0.0204
     13 C         138.9871  138.0693  161.8983 C.ar    1  UNL1        0.0989
     14 N         138.0619  138.8399  162.7927 N.ar    1  UNL1       -0.2426
     15 C         138.6001  139.5355  164.0079 C.ar    1  UNL1        0.0972
     16 C         141.1225  141.2646  164.6783 C.3     1  UNL1        0.1131
     17 N         140.1649  142.1607  163.9504 N.3     1  UNL1       -0.2657
     18 C         139.1277  142.8325  164.8006 C.3     1  UNL1        0.0751
     19 C         138.0405  143.7759  164.3788 C.3     1  UNL1        0.0494
     20 C         137.7221  144.2807  163.0027 C.3     1  UNL1        0.1437
     21 O         138.4121  143.9667  161.7084 O.3     1  UNL1       -0.3522
     22 C         139.5911  143.0703  161.4706 C.3     1  UNL1        0.1594
     23 C         140.3711  142.2666  162.4684 C.3     1  UNL1        0.1048
     24 C         142.6010  141.4776  164.5410 C.ar    1  UNL1       -0.0049
     25 C         143.4784  140.3596  164.0613 C.ar    1  UNL1       -0.0029
     26 C         144.9568  140.5726  163.9239 C.ar    1  UNL1       -0.0003
     27 C         145.5578  141.9036  164.2662 C.ar    1  UNL1       -0.0000
     28 C         144.6804  143.0216  164.7459 C.ar    1  UNL1       -0.0003
     29 C         143.2020  142.8087  164.8833 C.ar    1  UNL1       -0.0029
@<TRIPOS>BOND
     1     1     2    1
     2     2     4    1
     3     4     5   ar
     4     5     6   ar
     5     6     7   ar
     6     7     8   ar
     7     8     9   ar
     8     2    10    1
     9    10    11   ar
    10    11    12   ar
    11    12    13   ar
    12    13    14   ar
    13    14    15   ar
    14     2    16    1
    15    16    24    1
    16    24    25   ar
    17    25    26   ar
    18    26    27   ar
    19    27    28   ar
    20    28    29   ar
    21    16    17    1
    22    17    18    1
    23    18    19    1
    24    19    20    1
    25    20    21    1
    26    21    22    1
    27    22    23    1
    28     9     4   ar
    29    15    10   ar
    30    29    24   ar
    31    23    17    1
    32     1     3    1
@<TRIPOS>MOLECULE
*****
 29 32 0 0 0
SMALL
GASTEIGER

@<TRIPOS>ATOM
      1 O         140.0874  139.0654  166.4600 O.3     1  UNL1       -0.3768
      2 C         140.6002  140.1720  165.5868 C.3     1  UNL1        0.1456
      3 H         140.3016  139.2587  167.3861 H       1  UNL1        0.2112
      4 C         140.0677  139.4637  164.3765 C.ar    1  UNL1        0.0264
      5 C         140.9970  138.6839  163.4943 C.ar    1  UNL1        0.0015
      6 C         140.4645  137.9757  162.2840 C.ar    1  UNL1        0.0204
      7 C         139.0026  138.0472  161.9559 C.ar    1  UNL1        0.0989
      8 N         138.0731  138.8270  162.8381 N.ar    1  UNL1       -0.2426
      9 C         138.6058  139.5352  164.0484 C.ar    1  UNL1        0.0972
     10 C         141.1328  140.8802  166.7970 C.ar    1  UNL1        0.0264
     11 C         142.3715  140.3763  167.4763 C.ar    1  UNL1        0.0015
     12 C         142.9040  141.0846  168.6866 C.ar    1  UNL1        0.0204
     13 C         142.1979  142.2967  169.2176 C.ar    1  UNL1        0.0989
     14 N         140.9591  142.8006  168.5383 N.ar    1  UNL1       -0.2426
     15 C         140.4264  142.0924  167.3280 C.ar    1  UNL1        0.0972
     16 C         141.1130  141.2785  164.7136 C.3     1  UNL1        0.1131
     17 N         140.1488  142.1669  163.9848 N.3     1  UNL1       -0.2657
     18 C         139.1068  142.8320  164.8344 C.3     1  UNL1        0.0751
     19 C         138.0128  143.7671  164.4118 C.3     1  UNL1        0.0494
     20 C         137.6906  144.2682  163.0352 C.3     1  UNL1        0.1437
     21 O         138.3828  143.9579  161.7411 O.3     1  UNL1       -0.3522
     22 C         139.5683  143.0698  161.5042 C.3     1  UNL1        0.1594
     23 C         140.3542  142.2727  162.5027 C.3     1  UNL1        0.1048
     24 C         142.5900  141.4967  164.5692 C.ar    1  UNL1       -0.0049
     25 C         143.4699  140.3801  164.0909 C.ar    1  UNL1       -0.0029
     26 C         144.9469  140.5983  163.9465 C.ar    1  UNL1       -0.0003
     27 C         145.5440  141.9332  164.2805 C.ar    1  UNL1       -0.0000
     28 C         144.6641  143.0499  164.7588 C.ar    1  UNL1       -0.0003
     29 C         143.1871  142.8317  164.9032 C.ar    1  UNL1       -0.0029
@<TRIPOS>BOND
     1     1     2    1
     2     2     4    1
     3     4     5   ar
     4     5     6   ar
     5     6     7   ar
     6     7     8   ar
     7     8     9   ar
     8     2    10    1
     9    10    11   ar
    10    11    12   ar
    11    12    13   ar
    12    13    14   ar
    13    14    15   ar
    14     2    16    1
    15    16    24    1
    16    24    25   ar
    17    25    26   ar
    18    26    27   ar
    19    27    28   ar
    20    28    29   ar
    21    16    17    1
    22    17    18    1
    23    18    19    1
    24    19    20    1
    25    20    21    1
    26    21    22    1
    27    22    23    1
    28     9     4   ar
    29    15    10   ar
    30    29    24   ar
    31    23    17    1
    32     1     3    1
@<TRIPOS>MOLECULE
*****
 29 32 0 0 0
SMALL
GASTEIGER

@<TRIPOS>ATOM
      1 O         143.6370  142.5526  166.6602 O.3     1  UNL1       -0.3768
      2 C         142.5218  142.0269  165.8058 C.3     1  UNL1        0.1456
      3 H         144.2698  143.0348  166.1052 H       1  UNL1        0.2112
      4 C         141.8783  141.4218  167.0181 C.ar    1  UNL1        0.0264
      5 C         142.4905  140.2177  167.6702 C.ar    1  UNL1        0.0015
      6 C         141.8470  139.6126  168.8825 C.ar    1  UNL1        0.0204
      7 C         140.5911  140.2116  169.4428 C.ar    1  UNL1        0.0989
      8 N         139.9787  141.4158  168.7907 N.ar    1  UNL1       -0.2426
      9 C         140.6224  142.0208  167.5784 C.ar    1  UNL1        0.0972
     10 C         143.1654  142.6319  164.5935 C.ar    1  UNL1        0.0264
     11 C         143.1219  144.1164  164.3834 C.ar    1  UNL1        0.0015
     12 C         143.7654  144.7215  163.1711 C.ar    1  UNL1        0.0204
     13 C         144.4525  143.8421  162.1689 C.ar    1  UNL1        0.0989
     14 N         144.4961  142.3575  162.3790 N.ar    1  UNL1       -0.2426
     15 C         143.8525  141.7524  163.5913 C.ar    1  UNL1        0.0972
     16 C         141.4066  141.5012  164.9514 C.3     1  UNL1        0.1131
     17 N         140.5309  142.4531  164.1920 N.3     1  UNL1       -0.2657
     18 C         139.8769  143.5283  165.0082 C.3     1  UNL1        0.0751
     19 C         138.9555  144.6199  164.5507 C.3     1  UNL1        0.0494
     20 C         138.4605  144.9060  163.1640 C.3     1  UNL1        0.1437
     21 O         138.7645  144.1711  161.8922 O.3     1  UNL1       -0.3522
     22 C         139.6389  142.9686  161.6931 C.3     1  UNL1        0.1594
     23 C         140.4250  142.2041  162.7166 C.3     1  UNL1        0.1048
     24 C         141.1672  140.0234  164.8565 C.ar    1  UNL1       -0.0049
     25 C         139.8166  139.4598  165.1850 C.ar    1  UNL1       -0.0029
     26 C         139.5773  137.9821  165.0901 C.ar    1  UNL1       -0.0003
     27 C         140.6886  137.0680  164.6667 C.ar    1  UNL1       -0.0000
     28 C         142.0393  137.6316  164.3382 C.ar    1  UNL1       -0.0003
     29 C         142.2787  139.1093  164.4331 C.ar    1  UNL1       -0.0029
@<TRIPOS>BOND
     1     1     2    1
     2     2     4    1
     3     4     5   ar
     4     5     6   ar
     5     6     7   ar
     6     7     8   ar
     7     8     9   ar
     8     2    10    1
     9    10    11   ar
    10    11    12   ar
    11    12    13   ar
    12    13    14   ar
    13    14    15   ar
    14     2    16    1
    15    16    24    1
    16    24    25   ar
    17    25    26   ar
    18    26    27   ar
    19    27    28   ar
    20    28    29   ar
    21    16    17    1
    22    17    18    1
    23    18    19    1
    24    19    20    1
    25    20    21    1
    26    21    22    1
    27    22    23    1
    28     9     4   ar
    29    15    10   ar
    30    29    24   ar
    31    23    17    1
    32     1     3    1
