@<TRIPOS>MOLECULE
*****
 31 35 0 0 0
SMALL
GASTEIGER

@<TRIPOS>ATOM
      1 C         140.5450  144.9255  158.2247 C.3     1  UNL1        0.0181
      2 C         140.4771  145.3400  159.6647 C.3     1  UNL1        0.0036
      3 C         140.4101  145.4456  161.1595 C.3     1  UNL1        0.0226
      4 C         140.4005  144.0553  161.7225 C.3     1  UNL1        0.0866
      5 C         140.4616  143.0904  160.5757 C.3     1  UNL1        0.0226
      6 C         140.5089  143.8843  159.3039 C.3     1  UNL1        0.0036
      7 N         140.3404  143.6934  163.1770 N.ar    1  UNL1       -0.3167
      8 C         139.1116  143.7001  164.0371 C.ar    1  UNL1        0.1207
      9 C         137.7271  144.0699  163.5939 C.3     1  UNL1        0.0718
     10 N         139.5103  143.2721  165.4184 N.ar    1  UNL1       -0.2309
     11 C         140.9856  143.0009  165.4119 C.ar    1  UNL1        0.0985
     12 C         141.9281  142.5505  166.4883 C.ar    1  UNL1        0.0229
     13 C         143.3836  142.3605  166.1795 C.ar    1  UNL1        0.0313
     14 C         143.8966  142.6209  164.7942 C.ar    1  UNL1        0.1417
     15 F         145.3521  142.4308  164.4854 F       1  UNL1       -0.2041
     16 C         142.9541  143.0713  163.7178 C.ar    1  UNL1        0.0484
     17 C         141.4986  143.2613  164.0266 C.ar    1  UNL1        0.0808
     18 C         140.6051  145.2874  156.7703 C.3     1  UNL1        0.0718
     19 N         140.5077  146.7240  156.3502 N.am    1  UNL1       -0.3025
     20 C         139.2980  147.2076  155.6066 C.2     1  UNL1        0.2458
     21 O         138.1858  146.2546  155.2832 O.2     1  UNL1       -0.2701
     22 H         141.2377  147.3495  156.5625 H       1  UNL1        0.1497
     23 C         139.2006  148.6444  155.1865 C.ar    1  UNL1        0.0534
     24 C         138.5137  149.6401  156.0733 C.ar    1  UNL1        0.0054
     25 C         138.4162  151.0768  155.6532 C.ar    1  UNL1        0.0115
     26 C         139.0058  151.5177  154.3463 C.ar    1  UNL1        0.0577
     27 CL        138.9084  152.9543  153.9262 Cl      1  UNL1       -0.0822
     28 C         139.6928  150.5219  153.4595 C.ar    1  UNL1        0.0115
     29 C         139.7903  149.0852  153.8795 C.ar    1  UNL1        0.0054
     30 C         139.7367  143.1243  155.6227 C.3     1  UNL1        0.0017
     31 C         140.7627  144.2125  155.7358 C.3     1  UNL1        0.0196
@<TRIPOS>BOND
     1    30    31    1
     2    18    31    1
     3    18    19    1
     4    19    20   am
     5    20    21    2
     6    20    23    1
     7    23    24   ar
     8    24    25   ar
     9    25    26   ar
    10    26    27    1
    11    26    28   ar
    12    28    29   ar
    13     1    18    1
    14     1     2    1
    15     2     3    1
    16     3     4    1
    17     4     7    1
    18     7     8   ar
    19     8     9    1
    20     8    10   ar
    21    10    11   ar
    22    11    12   ar
    23    12    13   ar
    24    13    14   ar
    25    14    15    1
    26    14    16   ar
    27    16    17   ar
    28     4     5    1
    29     6     5    1
    30    29    23   ar
    31     6     1    1
    32     6     2    1
    33    17     7   ar
    34    17    11   ar
    35    19    22    1
@<TRIPOS>MOLECULE
*****
 31 35 0 0 0
SMALL
GASTEIGER

@<TRIPOS>ATOM
      1 C         137.4191  142.4970  156.3616 C.3     1  UNL1        0.0181
      2 C         138.0179  142.2239  157.7096 C.3     1  UNL1        0.0036
      3 C         138.7946  142.2010  158.9927 C.3     1  UNL1        0.0226
      4 C         139.7701  143.3401  158.9646 C.3     1  UNL1        0.0866
      5 C         139.5964  144.0670  157.6641 C.3     1  UNL1        0.0226
      6 C         138.5136  143.3772  156.8885 C.3     1  UNL1        0.0036
      7 N         140.7477  143.6907  160.0469 N.ar    1  UNL1       -0.3167
      8 C         142.2375  143.7764  159.8954 C.ar    1  UNL1        0.1207
      9 C         143.0114  143.5264  158.6350 C.3     1  UNL1        0.0718
     10 N         142.8176  144.1558  161.2256 N.ar    1  UNL1       -0.2309
     11 C         141.6863  144.3047  162.1993 C.ar    1  UNL1        0.0985
     12 C         141.6557  144.6648  163.6550 C.ar    1  UNL1        0.0229
     13 C         140.3459  144.7375  164.3823 C.ar    1  UNL1        0.0313
     14 C         139.0666  144.4501  163.6538 C.ar    1  UNL1        0.1417
     15 F         137.7567  144.5228  164.3811 F       1  UNL1       -0.2041
     16 C         139.0971  144.0899  162.1980 C.ar    1  UNL1        0.0484
     17 C         140.4069  144.0172  161.4707 C.ar    1  UNL1        0.0808
     18 C         136.4416  142.1464  155.2794 C.3     1  UNL1        0.0718
     19 N         135.0124  141.8515  155.6263 N.am    1  UNL1       -0.3025
     20 C         134.5280  140.4325  155.6674 C.2     1  UNL1        0.2458
     21 O         135.4728  139.3083  155.3615 O.2     1  UNL1       -0.2701
     22 H         134.3923  142.5894  155.8270 H       1  UNL1        0.1497
     23 C         133.0987  140.1376  156.0143 C.ar    1  UNL1        0.0534
     24 C         132.7486  138.8720  156.7392 C.ar    1  UNL1        0.0054
     25 C         131.3194  138.5772  157.0862 C.ar    1  UNL1        0.0115
     26 C         130.2403  139.5480  156.7082 C.ar    1  UNL1        0.0577
     27 CL        128.8110  139.2531  157.0551 Cl      1  UNL1       -0.0822
     28 C         130.5903  140.8137  155.9832 C.ar    1  UNL1        0.0115
     29 C         132.0195  141.1085  155.6363 C.ar    1  UNL1        0.0054
     30 C         137.3566  143.3395  153.1606 C.3     1  UNL1        0.0017
     31 C         136.8933  142.0906  153.8500 C.3     1  UNL1        0.0196
@<TRIPOS>BOND
     1    30    31    1
     2    18    31    1
     3    18    19    1
     4    19    20   am
     5    20    21    2
     6    20    23    1
     7    23    24   ar
     8    24    25   ar
     9    25    26   ar
    10    26    27    1
    11    26    28   ar
    12    28    29   ar
    13     1    18    1
    14     1     2    1
    15     2     3    1
    16     3     4    1
    17     4     7    1
    18     7     8   ar
    19     8     9    1
    20     8    10   ar
    21    10    11   ar
    22    11    12   ar
    23    12    13   ar
    24    13    14   ar
    25    14    15    1
    26    14    16   ar
    27    16    17   ar
    28     4     5    1
    29     6     5    1
    30    29    23   ar
    31     6     1    1
    32     6     2    1
    33    17     7   ar
    34    17    11   ar
    35    19    22    1
@<TRIPOS>MOLECULE
*****
 31 35 0 0 0
SMALL
GASTEIGER

@<TRIPOS>ATOM
      1 C         140.3181  138.3321  157.9577 C.3     1  UNL1        0.0181
      2 C         141.0020  138.9651  159.1332 C.3     1  UNL1        0.0036
      3 C         141.3943  139.6272  160.4208 C.3     1  UNL1        0.0226
      4 C         140.1434  139.8986  161.2026 C.3     1  UNL1        0.0866
      5 C         138.9777  139.4042  160.3982 C.3     1  UNL1        0.0226
      6 C         139.5084  138.8274  159.1193 C.3     1  UNL1        0.0036
      7 N         140.0706  140.5499  162.5518 N.ar    1  UNL1       -0.3167
      8 C         140.4585  141.9634  162.8706 C.ar    1  UNL1        0.1207
      9 C         140.9872  142.9737  161.8961 C.3     1  UNL1        0.0718
     10 N         140.2249  142.1891  164.3350 N.ar    1  UNL1       -0.2309
     11 C         139.6926  140.9151  164.9213 C.ar    1  UNL1        0.0985
     12 C         139.2824  140.5467  166.3162 C.ar    1  UNL1        0.0229
     13 C         138.7769  139.1652  166.6091 C.ar    1  UNL1        0.0313
     14 C         138.6815  138.1521  165.5071 C.ar    1  UNL1        0.1417
     15 F         138.1760  136.7706  165.8000 F       1  UNL1       -0.2041
     16 C         139.0917  138.5205  164.1121 C.ar    1  UNL1        0.0484
     17 C         139.5973  139.9020  163.8192 C.ar    1  UNL1        0.0808
     18 C         140.3908  137.6809  156.6086 C.3     1  UNL1        0.0718
     19 N         140.9860  136.3112  156.4680 N.am    1  UNL1       -0.3025
     20 C         142.4696  136.1227  156.5829 C.2     1  UNL1        0.2458
     21 O         143.3581  137.3039  156.8385 O.2     1  UNL1       -0.2701
     22 H         140.4028  135.5359  156.3003 H       1  UNL1        0.1497
     23 C         143.0648  134.7530  156.4424 C.ar    1  UNL1        0.0534
     24 C         143.8181  134.1415  157.5863 C.ar    1  UNL1        0.0054
     25 C         144.4132  132.7719  157.4457 C.ar    1  UNL1        0.0115
     26 C         144.2551  132.0136  156.1612 C.ar    1  UNL1        0.0577
     27 CL        144.8502  130.6440  156.0206 Cl      1  UNL1       -0.0822
     28 C         143.5018  132.6251  155.0172 C.ar    1  UNL1        0.0115
     29 C         142.9066  133.9947  155.1577 C.ar    1  UNL1        0.0054
     30 C         139.5846  139.8705  155.4660 C.3     1  UNL1        0.0017
     31 C         139.8683  138.3992  155.3998 C.3     1  UNL1        0.0196
@<TRIPOS>BOND
     1    30    31    1
     2    18    31    1
     3    18    19    1
     4    19    20   am
     5    20    21    2
     6    20    23    1
     7    23    24   ar
     8    24    25   ar
     9    25    26   ar
    10    26    27    1
    11    26    28   ar
    12    28    29   ar
    13     1    18    1
    14     1     2    1
    15     2     3    1
    16     3     4    1
    17     4     7    1
    18     7     8   ar
    19     8     9    1
    20     8    10   ar
    21    10    11   ar
    22    11    12   ar
    23    12    13   ar
    24    13    14   ar
    25    14    15    1
    26    14    16   ar
    27    16    17   ar
    28     4     5    1
    29     6     5    1
    30    29    23   ar
    31     6     1    1
    32     6     2    1
    33    17     7   ar
    34    17    11   ar
    35    19    22    1
@<TRIPOS>MOLECULE
*****
 31 35 0 0 0
SMALL
GASTEIGER

@<TRIPOS>ATOM
      1 C         141.8179  143.6152  162.3797 C.3     1  UNL1        0.0181
      2 C         141.2299  142.6876  163.4016 C.3     1  UNL1        0.0036
      3 C         140.9164  141.8009  164.5701 C.3     1  UNL1        0.0226
      4 C         142.1050  141.8018  165.4849 C.3     1  UNL1        0.0866
      5 C         143.1533  142.6891  164.8819 C.3     1  UNL1        0.0226
      6 C         142.6125  143.2366  163.5943 C.3     1  UNL1        0.0036
      7 N         142.2244  141.0478  166.7761 N.ar    1  UNL1       -0.3167
      8 C         142.8478  139.6949  166.9527 C.ar    1  UNL1        0.1207
      9 C         143.4612  138.8585  165.8690 C.3     1  UNL1        0.0718
     10 N         142.7501  139.3253  168.4031 N.ar    1  UNL1       -0.2309
     11 C         142.0664  140.4497  169.1230 C.ar    1  UNL1        0.0985
     12 C         141.6976  140.6417  170.5642 C.ar    1  UNL1        0.0229
     13 C         141.0040  141.8983  170.9998 C.ar    1  UNL1        0.0313
     14 C         140.6791  142.9629  169.9942 C.ar    1  UNL1        0.1417
     15 F         139.9855  144.2196  170.4299 F       1  UNL1       -0.2041
     16 C         141.0479  142.7709  168.5530 C.ar    1  UNL1        0.0484
     17 C         141.7415  141.5143  168.1174 C.ar    1  UNL1        0.0808
     18 C         141.6984  144.3692  161.0886 C.3     1  UNL1        0.0718
     19 N         142.7056  144.1534  159.9981 N.am    1  UNL1       -0.3025
     20 C         142.5391  143.0126  159.0384 C.2     1  UNL1        0.2458
     21 O         141.3656  142.0876  159.1692 O.2     1  UNL1       -0.2701
     22 H         143.4758  144.7605  159.9123 H       1  UNL1        0.1497
     23 C         143.5463  142.7969  157.9479 C.ar    1  UNL1        0.0534
     24 C         144.9739  142.4941  158.2946 C.ar    1  UNL1        0.0054
     25 C         145.9810  142.2784  157.2042 C.ar    1  UNL1        0.0115
     26 C         145.5605  142.3654  155.7670 C.ar    1  UNL1        0.0577
     27 CL        146.5677  142.1497  154.6765 Cl      1  UNL1       -0.0822
     28 C         144.1329  142.6682  155.4202 C.ar    1  UNL1        0.0115
     29 C         143.1258  142.8839  156.5106 C.ar    1  UNL1        0.0054
     30 C         139.9073  145.9726  162.0738 C.3     1  UNL1        0.0017
     31 C         140.5718  145.3390  160.8878 C.3     1  UNL1        0.0196
@<TRIPOS>BOND
     1    30    31    1
     2    18    31    1
     3    18    19    1
     4    19    20   am
     5    20    21    2
     6    20    23    1
     7    23    24   ar
     8    24    25   ar
     9    25    26   ar
    10    26    27    1
    11    26    28   ar
    12    28    29   ar
    13     1    18    1
    14     1     2    1
    15     2     3    1
    16     3     4    1
    17     4     7    1
    18     7     8   ar
    19     8     9    1
    20     8    10   ar
    21    10    11   ar
    22    11    12   ar
    23    12    13   ar
    24    13    14   ar
    25    14    15    1
    26    14    16   ar
    27    16    17   ar
    28     4     5    1
    29     6     5    1
    30    29    23   ar
    31     6     1    1
    32     6     2    1
    33    17     7   ar
    34    17    11   ar
    35    19    22    1
@<TRIPOS>MOLECULE
*****
 31 35 0 0 0
SMALL
GASTEIGER

@<TRIPOS>ATOM
      1 C         142.6357  140.3716  162.2697 C.3     1  UNL1        0.0181
      2 C         142.5766  139.7389  163.6285 C.3     1  UNL1        0.0036
      3 C         142.2818  139.3077  165.0347 C.3     1  UNL1        0.0226
      4 C         141.1427  140.1392  165.5454 C.3     1  UNL1        0.0866
      5 C         140.7334  141.0844  164.4550 C.3     1  UNL1        0.0226
      6 C         141.6196  140.8370  163.2703 C.3     1  UNL1        0.0036
      7 N         140.5219  140.0426  166.9075 N.ar    1  UNL1       -0.3167
      8 C         139.1381  139.5508  167.2128 C.ar    1  UNL1        0.1207
      9 C         138.1321  139.0693  166.2097 C.3     1  UNL1        0.0718
     10 N         138.9369  139.6251  168.6974 N.ar    1  UNL1       -0.2309
     11 C         140.1963  140.1628  169.3096 C.ar    1  UNL1        0.0985
     12 C         140.5776  140.4508  170.7314 C.ar    1  UNL1        0.0229
     13 C         141.9386  140.9968  171.0470 C.ar    1  UNL1        0.0313
     14 C         142.9182  141.2548  169.9407 C.ar    1  UNL1        0.1417
     15 F         144.2792  141.8009  170.2564 F       1  UNL1       -0.2041
     16 C         142.5369  140.9668  168.5189 C.ar    1  UNL1        0.0484
     17 C         141.1759  140.4208  168.2033 C.ar    1  UNL1        0.0808
     18 C         143.2565  140.4683  160.9077 C.3     1  UNL1        0.0718
     19 N         143.0363  139.3757  159.9039 N.am    1  UNL1       -0.3025
     20 C         141.8596  139.4361  158.9755 C.2     1  UNL1        0.2458
     21 O         140.9032  140.5892  159.0511 O.2     1  UNL1       -0.2701
     22 H         143.6640  138.6189  159.8543 H       1  UNL1        0.1497
     23 C         141.6394  138.3435  157.9716 C.ar    1  UNL1        0.0534
     24 C         140.3394  138.2589  157.2282 C.ar    1  UNL1        0.0054
     25 C         140.1192  137.1663  156.2244 C.ar    1  UNL1        0.0115
     26 C         141.1990  136.1583  155.9639 C.ar    1  UNL1        0.0577
     27 CL        140.9788  135.0657  154.9601 Cl      1  UNL1       -0.0822
     28 C         142.4991  136.2429  156.7074 C.ar    1  UNL1        0.0115
     29 C         142.7193  137.3354  157.7112 C.ar    1  UNL1        0.0054
     30 C         144.4999  142.6386  161.6103 C.3     1  UNL1        0.0017
     31 C         144.0976  141.6575  160.5495 C.3     1  UNL1        0.0196
@<TRIPOS>BOND
     1    30    31    1
     2    18    31    1
     3    18    19    1
     4    19    20   am
     5    20    21    2
     6    20    23    1
     7    23    24   ar
     8    24    25   ar
     9    25    26   ar
    10    26    27    1
    11    26    28   ar
    12    28    29   ar
    13     1    18    1
    14     1     2    1
    15     2     3    1
    16     3     4    1
    17     4     7    1
    18     7     8   ar
    19     8     9    1
    20     8    10   ar
    21    10    11   ar
    22    11    12   ar
    23    12    13   ar
    24    13    14   ar
    25    14    15    1
    26    14    16   ar
    27    16    17   ar
    28     4     5    1
    29     6     5    1
    30    29    23   ar
    31     6     1    1
    32     6     2    1
    33    17     7   ar
    34    17    11   ar
    35    19    22    1
@<TRIPOS>MOLECULE
*****
 31 35 0 0 0
SMALL
GASTEIGER

@<TRIPOS>ATOM
      1 C         141.9934  138.8253  158.3524 C.3     1  UNL1        0.0181
      2 C         141.9491  139.4760  159.7033 C.3     1  UNL1        0.0036
      3 C         141.5988  140.0584  161.0405 C.3     1  UNL1        0.0226
      4 C         140.1270  139.8680  161.2580 C.3     1  UNL1        0.0866
      5 C         139.5674  139.1679  160.0552 C.3     1  UNL1        0.0226
      6 C         140.6935  138.9256  159.0943 C.3     1  UNL1        0.0036
      7 N         139.3509  140.3016  162.4661 N.ar    1  UNL1       -0.3167
      8 C         138.7934  139.3990  163.5266 C.ar    1  UNL1        0.1207
      9 C         138.9142  137.9044  163.5651 C.3     1  UNL1        0.0718
     10 N         138.0940  140.2535  164.5418 N.ar    1  UNL1       -0.2309
     11 C         138.2191  141.6842  164.1087 C.ar    1  UNL1        0.0985
     12 C         137.7261  142.9637  164.7168 C.ar    1  UNL1        0.0229
     13 C         138.0099  144.2729  164.0420 C.ar    1  UNL1        0.0313
     14 C         138.7867  144.3026  162.7592 C.ar    1  UNL1        0.1417
     15 F         139.0705  145.6119  162.0844 F       1  UNL1       -0.2041
     16 C         139.2797  143.0231  162.1511 C.ar    1  UNL1        0.0484
     17 C         138.9959  141.7139  162.8259 C.ar    1  UNL1        0.0808
     18 C         142.7695  138.3917  157.1443 C.3     1  UNL1        0.0718
     19 N         143.3472  137.0089  157.0805 N.am    1  UNL1       -0.3025
     20 C         142.5423  135.8860  156.4963 C.2     1  UNL1        0.2458
     21 O         141.1597  136.1459  155.9759 O.2     1  UNL1       -0.2701
     22 H         144.2547  136.8383  157.4220 H       1  UNL1        0.1497
     23 C         143.1201  134.5032  156.4325 C.ar    1  UNL1        0.0534
     24 C         142.9334  133.6685  155.2004 C.ar    1  UNL1        0.0054
     25 C         143.5112  132.2857  155.1365 C.ar    1  UNL1        0.0115
     26 C         144.2757  131.7376  156.3049 C.ar    1  UNL1        0.0577
     27 CL        144.8534  130.3548  156.2411 Cl      1  UNL1       -0.0822
     28 C         144.4624  132.5724  157.5372 C.ar    1  UNL1        0.0115
     29 C         143.8847  133.9551  157.6010 C.ar    1  UNL1        0.0054
     30 C         142.8240  140.8181  156.2170 C.3     1  UNL1        0.0017
     31 C         142.9679  139.3409  155.9999 C.3     1  UNL1        0.0196
@<TRIPOS>BOND
     1    30    31    1
     2    18    31    1
     3    18    19    1
     4    19    20   am
     5    20    21    2
     6    20    23    1
     7    23    24   ar
     8    24    25   ar
     9    25    26   ar
    10    26    27    1
    11    26    28   ar
    12    28    29   ar
    13     1    18    1
    14     1     2    1
    15     2     3    1
    16     3     4    1
    17     4     7    1
    18     7     8   ar
    19     8     9    1
    20     8    10   ar
    21    10    11   ar
    22    11    12   ar
    23    12    13   ar
    24    13    14   ar
    25    14    15    1
    26    14    16   ar
    27    16    17   ar
    28     4     5    1
    29     6     5    1
    30    29    23   ar
    31     6     1    1
    32     6     2    1
    33    17     7   ar
    34    17    11   ar
    35    19    22    1
@<TRIPOS>MOLECULE
*****
 31 35 0 0 0
SMALL
GASTEIGER

@<TRIPOS>ATOM
      1 C         142.1383  137.7385  157.4727 C.3     1  UNL1        0.0181
      2 C         140.8092  138.1654  158.0217 C.3     1  UNL1        0.0036
      3 C         139.6538  138.7542  158.7757 C.3     1  UNL1        0.0226
      4 C         140.2065  139.6171  159.8710 C.3     1  UNL1        0.0866
      5 C         141.7035  139.5618  159.7940 C.3     1  UNL1        0.0226
      6 C         142.0760  138.6646  158.6511 C.3     1  UNL1        0.0036
      7 N         139.4032  140.3983  160.8683 N.ar    1  UNL1       -0.3167
      8 C         138.7502  141.7271  160.6276 C.ar    1  UNL1        0.1207
      9 C         138.7856  142.5079  159.3473 C.3     1  UNL1        0.0718
     10 N         138.0554  142.1378  161.8919 N.ar    1  UNL1       -0.2309
     11 C         138.2791  141.0630  162.9140 C.ar    1  UNL1        0.0985
     12 C         137.8318  140.9243  164.3390 C.ar    1  UNL1        0.0229
     13 C         138.2176  139.7106  165.1314 C.ar    1  UNL1        0.0313
     14 C         139.0507  138.6355  164.4987 C.ar    1  UNL1        0.1417
     15 F         139.4365  137.4217  165.2912 F       1  UNL1       -0.2041
     16 C         139.4979  138.7741  163.0737 C.ar    1  UNL1        0.0484
     17 C         139.1121  139.9879  162.2814 C.ar    1  UNL1        0.0808
     18 C         142.9415  136.9574  156.4755 C.3     1  UNL1        0.0718
     19 N         143.4720  135.6016  156.8367 N.am    1  UNL1       -0.3025
     20 C         142.7272  134.3688  156.4179 C.2     1  UNL1        0.2458
     21 O         141.4518  134.4917  155.6379 O.2     1  UNL1       -0.2701
     22 H         144.3091  135.5209  157.3486 H       1  UNL1        0.1497
     23 C         143.2577  133.0129  156.7791 C.ar    1  UNL1        0.0534
     24 C         142.5487  131.7793  156.3045 C.ar    1  UNL1        0.0054
     25 C         143.0792  130.4236  156.6657 C.ar    1  UNL1        0.0115
     26 C         144.3188  130.3015  157.5015 C.ar    1  UNL1        0.0577
     27 CL        144.8493  128.9457  157.8627 Cl      1  UNL1       -0.0822
     28 C         145.0279  131.5352  157.9761 C.ar    1  UNL1        0.0115
     29 C         144.4974  132.8909  157.6149 C.ar    1  UNL1        0.0054
     30 C         142.0925  138.1155  154.3104 C.3     1  UNL1        0.0017
     31 C         143.2143  137.5319  155.1170 C.3     1  UNL1        0.0196
@<TRIPOS>BOND
     1    30    31    1
     2    18    31    1
     3    18    19    1
     4    19    20   am
     5    20    21    2
     6    20    23    1
     7    23    24   ar
     8    24    25   ar
     9    25    26   ar
    10    26    27    1
    11    26    28   ar
    12    28    29   ar
    13     1    18    1
    14     1     2    1
    15     2     3    1
    16     3     4    1
    17     4     7    1
    18     7     8   ar
    19     8     9    1
    20     8    10   ar
    21    10    11   ar
    22    11    12   ar
    23    12    13   ar
    24    13    14   ar
    25    14    15    1
    26    14    16   ar
    27    16    17   ar
    28     4     5    1
    29     6     5    1
    30    29    23   ar
    31     6     1    1
    32     6     2    1
    33    17     7   ar
    34    17    11   ar
    35    19    22    1
@<TRIPOS>MOLECULE
*****
 31 35 0 0 0
SMALL
GASTEIGER

@<TRIPOS>ATOM
      1 C         142.0803  138.1117  158.5628 C.3     1  UNL1        0.0181
      2 C         141.5050  138.7184  159.8083 C.3     1  UNL1        0.0036
      3 C         141.2248  139.3079  161.1588 C.3     1  UNL1        0.0226
      4 C         142.5154  139.3534  161.9217 C.3     1  UNL1        0.0866
      5 C         143.5934  138.7919  161.0428 C.3     1  UNL1        0.0226
      6 C         142.9690  138.3994  159.7366 C.3     1  UNL1        0.0036
      7 N         142.6964  139.8696  163.3184 N.ar    1  UNL1       -0.3167
      8 C         142.4028  139.1162  164.5818 C.ar    1  UNL1        0.1207
      9 C         141.8768  137.7143  164.6704 C.3     1  UNL1        0.0718
     10 N         142.7277  140.0110  165.7411 N.ar    1  UNL1       -0.2309
     11 C         143.2220  141.3173  165.1942 C.ar    1  UNL1        0.0985
     12 C         143.6872  142.5751  165.8661 C.ar    1  UNL1        0.0229
     13 C         144.1330  143.7455  165.0408 C.ar    1  UNL1        0.0313
     14 C         144.1136  143.6582  163.5434 C.ar    1  UNL1        0.1417
     15 F         144.5595  144.8287  162.7180 F       1  UNL1       -0.2041
     16 C         143.6484  142.4004  162.8715 C.ar    1  UNL1        0.0484
     17 C         143.2026  141.2300  163.6969 C.ar    1  UNL1        0.0808
     18 C         141.8994  137.5955  157.1662 C.3     1  UNL1        0.0718
     19 N         142.1042  136.1389  156.8726 N.am    1  UNL1       -0.3025
     20 C         143.3486  135.6831  156.1700 C.2     1  UNL1        0.2458
     21 O         144.3883  136.6840  155.7609 O.2     1  UNL1       -0.2701
     22 H         141.4219  135.4819  157.1411 H       1  UNL1        0.1497
     23 C         143.5534  134.2264  155.8764 C.ar    1  UNL1        0.0534
     24 C         144.3696  133.3810  156.8085 C.ar    1  UNL1        0.0054
     25 C         144.5744  131.9243  156.5149 C.ar    1  UNL1        0.0115
     26 C         143.9630  131.3131  155.2892 C.ar    1  UNL1        0.0577
     27 CL        144.1678  129.8564  154.9956 Cl      1  UNL1       -0.0822
     28 C         143.1467  132.1585  154.3570 C.ar    1  UNL1        0.0115
     29 C         142.9419  133.6152  154.6505 C.ar    1  UNL1        0.0054
     30 C         141.4939  140.0150  156.3110 C.3     1  UNL1        0.0017
     31 C         141.5137  138.5359  156.0630 C.3     1  UNL1        0.0196
@<TRIPOS>BOND
     1    30    31    1
     2    18    31    1
     3    18    19    1
     4    19    20   am
     5    20    21    2
     6    20    23    1
     7    23    24   ar
     8    24    25   ar
     9    25    26   ar
    10    26    27    1
    11    26    28   ar
    12    28    29   ar
    13     1    18    1
    14     1     2    1
    15     2     3    1
    16     3     4    1
    17     4     7    1
    18     7     8   ar
    19     8     9    1
    20     8    10   ar
    21    10    11   ar
    22    11    12   ar
    23    12    13   ar
    24    13    14   ar
    25    14    15    1
    26    14    16   ar
    27    16    17   ar
    28     4     5    1
    29     6     5    1
    30    29    23   ar
    31     6     1    1
    32     6     2    1
    33    17     7   ar
    34    17    11   ar
    35    19    22    1
@<TRIPOS>MOLECULE
*****
 31 35 0 0 0
SMALL
GASTEIGER

@<TRIPOS>ATOM
      1 C         142.8573  138.6188  158.8307 C.3     1  UNL1        0.0181
      2 C         143.2677  138.2998  160.2379 C.3     1  UNL1        0.0036
      3 C         143.4531  138.1854  161.7220 C.3     1  UNL1        0.0226
      4 C         142.4631  139.0969  162.3845 C.3     1  UNL1        0.0866
      5 C         141.6658  139.7748  161.3099 C.3     1  UNL1        0.0226
      6 C         142.1631  139.2821  159.9832 C.3     1  UNL1        0.0036
      7 N         142.2991  139.2957  163.8622 N.ar    1  UNL1       -0.3167
      8 C         141.6460  138.3375  164.8136 C.ar    1  UNL1        0.1207
      9 C         141.0421  137.0123  164.4544 C.3     1  UNL1        0.0718
     10 N         141.7027  138.9373  166.1873 N.ar    1  UNL1       -0.2309
     11 C         142.3910  140.2662  166.0849 C.ar    1  UNL1        0.0985
     12 C         142.7297  141.3031  167.1144 C.ar    1  UNL1        0.0229
     13 C         143.4369  142.5615  166.7070 C.ar    1  UNL1        0.0313
     14 C         143.8055  142.7830  165.2699 C.ar    1  UNL1        0.1417
     15 F         144.5129  144.0415  164.8625 F       1  UNL1       -0.2041
     16 C         143.4669  141.7461  164.2404 C.ar    1  UNL1        0.0484
     17 C         142.7596  140.4877  164.6478 C.ar    1  UNL1        0.0808
     18 C         143.0213  138.4200  157.3531 C.3     1  UNL1        0.0718
     19 N         143.3976  137.0714  156.8150 N.am    1  UNL1       -0.3025
     20 C         142.3315  136.1295  156.3393 C.2     1  UNL1        0.2458
     21 O         140.8890  136.5363  156.4018 O.2     1  UNL1       -0.2701
     22 H         144.3443  136.8044  156.7740 H       1  UNL1        0.1497
     23 C         142.7078  134.7808  155.8011 C.ar    1  UNL1        0.0534
     24 C         142.0415  134.2540  154.5649 C.ar    1  UNL1        0.0054
     25 C         142.4178  132.9054  154.0268 C.ar    1  UNL1        0.0115
     26 C         143.4605  132.0836  154.7249 C.ar    1  UNL1        0.0577
     27 CL        143.8368  130.7350  154.1867 Cl      1  UNL1       -0.0822
     28 C         144.1269  132.6105  155.9611 C.ar    1  UNL1        0.0115
     29 C         143.7506  133.9591  156.4993 C.ar    1  UNL1        0.0054
     30 C         143.9803  140.3793  155.9419 C.3     1  UNL1        0.0017
     31 C         142.8089  139.5698  156.4135 C.3     1  UNL1        0.0196
@<TRIPOS>BOND
     1    30    31    1
     2    18    31    1
     3    18    19    1
     4    19    20   am
     5    20    21    2
     6    20    23    1
     7    23    24   ar
     8    24    25   ar
     9    25    26   ar
    10    26    27    1
    11    26    28   ar
    12    28    29   ar
    13     1    18    1
    14     1     2    1
    15     2     3    1
    16     3     4    1
    17     4     7    1
    18     7     8   ar
    19     8     9    1
    20     8    10   ar
    21    10    11   ar
    22    11    12   ar
    23    12    13   ar
    24    13    14   ar
    25    14    15    1
    26    14    16   ar
    27    16    17   ar
    28     4     5    1
    29     6     5    1
    30    29    23   ar
    31     6     1    1
    32     6     2    1
    33    17     7   ar
    34    17    11   ar
    35    19    22    1
