@<TRIPOS>MOLECULE
*****
 40 43 0 0 0
SMALL
GASTEIGER

@<TRIPOS>ATOM
      1 N         144.3387  142.6537  158.8970 N.3     1  UNL1       -0.2711
      2 C         144.4733  142.3974  160.3688 C.3     1  UNL1        0.0933
      3 C         143.1339  143.0313  160.6017 C.3     1  UNL1        0.1035
      4 C         142.9994  143.2876  159.1299 C.3     1  UNL1        0.0933
      5 C         146.8946  141.8524  155.2810 C.3     1  UNL1        0.1085
      6 O         146.8227  141.1557  153.9546 O.3     1  UNL1       -0.3826
      7 C         147.4448  142.6491  156.4267 C.3     1  UNL1        0.0326
      8 C         146.5928  142.9162  157.6321 C.3     1  UNL1        0.0187
      9 C         145.1907  142.3867  157.6917 C.3     1  UNL1        0.0578
     10 C         144.6405  141.5900  156.5460 C.3     1  UNL1        0.0187
     11 C         145.4925  141.3229  155.3407 C.3     1  UNL1        0.0326
     12 H         147.6675  141.2584  153.4892 H       1  UNL1        0.2107
     13 C         151.0261  142.7152  153.7201 C.ar    1  UNL1        0.1318
     14 C         149.8278  143.3031  153.0357 C.ar    1  UNL1        0.0341
     15 C         148.4507  143.0155  153.5560 C.ar    1  UNL1        0.0024
     16 C         148.2718  142.1400  154.7607 C.ar    1  UNL1        0.0210
     17 C         149.4700  141.5521  155.4452 C.ar    1  UNL1        0.0982
     18 N         150.8472  141.8397  154.9249 N.ar    1  UNL1       -0.2294
     19 C         153.2494  141.8876  152.6609 C.3     1  UNL1        0.1136
     20 N         152.4033  143.0027  153.1998 N.pl3   1  UNL1       -0.2897
     21 C         152.9343  144.4054  153.2185 C.3     1  UNL1        0.1136
     22 N         142.2820  143.2983  161.8071 N.am    1  UNL1       -0.3018
     23 C         142.7426  144.2730  162.8500 C.2     1  UNL1        0.2426
     24 O         144.0551  144.9807  162.6876 O.2     1  UNL1       -0.2733
     25 H         141.4205  142.8339  161.9136 H       1  UNL1        0.1495
     26 C         141.8906  144.5401  164.0554 C.3     1  UNL1        0.1759
     27 N         141.3944  143.3975  164.8911 N.am    1  UNL1       -0.2931
     28 C         140.1032  142.7185  164.5422 C.2     1  UNL1        0.2462
     29 O         139.3082  143.1821  163.3576 O.2     1  UNL1       -0.2701
     30 H         141.9162  143.0933  165.6685 H       1  UNL1        0.1502
     31 C         139.6069  141.5760  165.3778 C.ar    1  UNL1        0.0533
     32 C         138.5963  140.6200  164.8169 C.ar    1  UNL1        0.0045
     33 C         138.1000  139.4775  165.6526 C.ar    1  UNL1        0.0001
     34 C         138.6146  139.2909  167.0492 C.ar    1  UNL1        0.0039
     35 C         139.6252  140.2469  167.6101 C.ar    1  UNL1        0.0716
     36 C         140.1214  141.3894  166.7745 C.ar    1  UNL1        0.0084
     37 C         140.1397  140.0603  169.0068 C.3     1  UNL1        0.4186
     38 F         140.6542  139.8737  170.4033 F       1  UNL1       -0.1659
     39 F         138.7326  140.0690  169.5262 F       1  UNL1       -0.1659
     40 F         141.5469  140.0516  168.4872 F       1  UNL1       -0.1659
@<TRIPOS>BOND
     1    19    20    1
     2    20    21    1
     3    20    13    1
     4    13    14   ar
     5    14    15   ar
     6    15    16   ar
     7    16     5    1
     8     5     6    1
     9     5     7    1
    10     7     8    1
    11     8     9    1
    12     9     1    1
    13     1     2    1
    14     2     3    1
    15     3    22    1
    16    22    23   am
    17    23    24    2
    18    23    26    1
    19    26    27    1
    20    27    28   am
    21    28    29    2
    22    28    31    1
    23    31    32   ar
    24    32    33   ar
    25    33    34   ar
    26    34    35   ar
    27    35    37    1
    28    37    38    1
    29    37    39    1
    30    37    40    1
    31    35    36   ar
    32     3     4    1
    33     9    10    1
    34    10    11    1
    35    16    17   ar
    36    17    18   ar
    37    18    13   ar
    38    11     5    1
    39     4     1    1
    40    36    31   ar
    41     6    12    1
    42    22    25    1
    43    27    30    1
@<TRIPOS>MOLECULE
*****
 40 43 0 0 0
SMALL
GASTEIGER

@<TRIPOS>ATOM
      1 N         139.5745  140.0469  160.4233 N.3     1  UNL1       -0.2711
      2 C         139.7229  139.9143  158.9366 C.3     1  UNL1        0.0933
      3 C         138.2792  140.2812  158.7598 C.3     1  UNL1        0.1035
      4 C         138.1309  140.4138  160.2465 C.3     1  UNL1        0.0933
      5 C         142.3226  139.5496  163.9518 C.3     1  UNL1        0.1085
      6 O         143.5752  138.8207  164.3390 O.3     1  UNL1       -0.3826
      7 C         141.1226  140.4435  164.0560 C.3     1  UNL1        0.0326
      8 C         140.2065  140.6092  162.8798 C.3     1  UNL1        0.0187
      9 C         140.4905  139.8812  161.5995 C.3     1  UNL1        0.0578
     10 C         141.6906  138.9873  161.4953 C.3     1  UNL1        0.0187
     11 C         142.6067  138.8216  162.6715 C.3     1  UNL1        0.0326
     12 H         143.8039  139.0360  165.2568 H       1  UNL1        0.2107
     13 C         142.7755  140.9744  168.1962 C.ar    1  UNL1        0.1318
     14 C         142.6299  139.5095  167.9083 C.ar    1  UNL1        0.0341
     15 C         142.4790  139.0346  166.4935 C.ar    1  UNL1        0.0024
     16 C         142.4736  140.0245  165.3666 C.ar    1  UNL1        0.0210
     17 C         142.6192  141.4894  165.6545 C.ar    1  UNL1        0.0982
     18 N         142.7701  141.9643  167.0693 N.ar    1  UNL1       -0.2294
     19 C         144.0353  142.3931  169.9710 C.3     1  UNL1        0.1136
     20 N         142.9265  141.4493  169.6110 N.pl3   1  UNL1       -0.2897
     21 C         141.9686  140.9804  170.6658 C.3     1  UNL1        0.1136
     22 N         137.3633  140.4469  157.5835 N.am    1  UNL1       -0.3018
     23 C         137.3930  141.7149  156.7826 C.2     1  UNL1        0.2426
     24 O         138.3385  142.8171  157.1580 O.2     1  UNL1       -0.2733
     25 H         136.7426  139.7235  157.3371 H       1  UNL1        0.1495
     26 C         136.4770  141.8806  155.6063 C.3     1  UNL1        0.1759
     27 N         134.9905  141.8308  155.8005 N.am    1  UNL1       -0.2931
     28 C         134.2852  140.5081  155.8562 C.2     1  UNL1        0.2462
     29 O         135.0666  139.2352  155.7177 O.2     1  UNL1       -0.2701
     30 H         134.4776  142.6663  155.8914 H       1  UNL1        0.1502
     31 C         132.7987  140.4583  156.0504 C.ar    1  UNL1        0.0533
     32 C         131.9144  141.4268  155.3223 C.ar    1  UNL1        0.0045
     33 C         130.4279  141.3770  155.5165 C.ar    1  UNL1        0.0001
     34 C         129.8256  140.3587  156.4387 C.ar    1  UNL1        0.0039
     35 C         130.7099  139.3903  157.1668 C.ar    1  UNL1        0.0716
     36 C         132.1965  139.4400  156.9726 C.ar    1  UNL1        0.0084
     37 C         130.1077  138.3720  158.0890 C.3     1  UNL1        0.4186
     38 F         129.5055  137.3538  159.0112 F       1  UNL1       -0.1659
     39 F         131.4496  138.1516  158.7219 F       1  UNL1       -0.1659
     40 F         128.7657  138.5924  157.4560 F       1  UNL1       -0.1659
@<TRIPOS>BOND
     1    19    20    1
     2    20    21    1
     3    20    13    1
     4    13    14   ar
     5    14    15   ar
     6    15    16   ar
     7    16     5    1
     8     5     6    1
     9     5     7    1
    10     7     8    1
    11     8     9    1
    12     9     1    1
    13     1     2    1
    14     2     3    1
    15     3    22    1
    16    22    23   am
    17    23    24    2
    18    23    26    1
    19    26    27    1
    20    27    28   am
    21    28    29    2
    22    28    31    1
    23    31    32   ar
    24    32    33   ar
    25    33    34   ar
    26    34    35   ar
    27    35    37    1
    28    37    38    1
    29    37    39    1
    30    37    40    1
    31    35    36   ar
    32     3     4    1
    33     9    10    1
    34    10    11    1
    35    16    17   ar
    36    17    18   ar
    37    18    13   ar
    38    11     5    1
    39     4     1    1
    40    36    31   ar
    41     6    12    1
    42    22    25    1
    43    27    30    1
@<TRIPOS>MOLECULE
*****
 40 43 0 0 0
SMALL
GASTEIGER

@<TRIPOS>ATOM
      1 N         144.3384  142.1673  158.0990 N.3     1  UNL1       -0.2711
      2 C         144.4065  142.4847  159.5635 C.3     1  UNL1        0.0933
      3 C         142.9158  142.3502  159.6620 C.3     1  UNL1        0.1035
      4 C         142.8477  142.0327  158.1975 C.3     1  UNL1        0.0933
      5 C         147.3562  141.7791  154.7837 C.3     1  UNL1        0.1085
      6 O         147.4959  141.1629  153.4232 O.3     1  UNL1       -0.3826
      7 C         147.7035  142.5405  156.0285 C.3     1  UNL1        0.0326
      8 C         146.6975  142.6699  157.1337 C.3     1  UNL1        0.0187
      9 C         145.3444  142.0379  156.9940 C.3     1  UNL1        0.0578
     10 C         144.9971  141.2765  155.7491 C.3     1  UNL1        0.0187
     11 C         146.0031  141.1471  154.6439 C.3     1  UNL1        0.0326
     12 H         148.3787  141.3551  153.0703 H       1  UNL1        0.2107
     13 C         151.5611  143.0331  153.7855 C.ar    1  UNL1        0.1318
     14 C         150.4107  143.5559  152.9772 C.ar    1  UNL1        0.0341
     15 C         149.0091  143.1378  153.3099 C.ar    1  UNL1        0.0024
     16 C         148.7579  142.1971  154.4509 C.ar    1  UNL1        0.0210
     17 C         149.9083  141.6744  155.2592 C.ar    1  UNL1        0.0982
     18 N         151.3099  142.0924  154.9265 N.ar    1  UNL1       -0.2294
     19 C         153.7767  142.6435  152.4858 C.3     1  UNL1        0.1136
     20 N         152.9628  143.4511  153.4528 N.pl3   1  UNL1       -0.2897
     21 C         153.5504  144.6768  154.0870 C.3     1  UNL1        0.1136
     22 N         141.9098  142.4795  160.7671 N.am    1  UNL1       -0.3018
     23 C         141.3086  143.8174  161.0812 C.2     1  UNL1        0.2426
     24 O         141.7133  145.0259  160.2902 O.2     1  UNL1       -0.2733
     25 H         141.6442  141.6864  161.2863 H       1  UNL1        0.1495
     26 C         140.3026  143.9468  162.1864 C.3     1  UNL1        0.1759
     27 N         140.4179  143.0868  163.4099 N.am    1  UNL1       -0.2931
     28 C         139.1839  142.5216  164.0484 C.2     1  UNL1        0.2462
     29 O         137.8345  142.8164  163.4633 O.2     1  UNL1       -0.2701
     30 H         141.3036  142.8933  163.7939 H       1  UNL1        0.1502
     31 C         139.2992  141.6616  165.2720 C.ar    1  UNL1        0.0533
     32 C         140.1083  142.1305  166.4447 C.ar    1  UNL1        0.0045
     33 C         140.2236  141.2705  167.6683 C.ar    1  UNL1        0.0001
     34 C         139.5298  139.9416  167.7191 C.ar    1  UNL1        0.0039
     35 C         138.7207  139.4727  166.5463 C.ar    1  UNL1        0.0716
     36 C         138.6054  140.3326  165.3228 C.ar    1  UNL1        0.0084
     37 C         138.0269  138.1437  166.5971 C.3     1  UNL1        0.4186
     38 F         137.3331  136.8148  166.6478 F       1  UNL1       -0.1659
     39 F         137.2426  138.5988  167.7919 F       1  UNL1       -0.1659
     40 F         138.8112  137.6886  165.4022 F       1  UNL1       -0.1659
@<TRIPOS>BOND
     1    19    20    1
     2    20    21    1
     3    20    13    1
     4    13    14   ar
     5    14    15   ar
     6    15    16   ar
     7    16     5    1
     8     5     6    1
     9     5     7    1
    10     7     8    1
    11     8     9    1
    12     9     1    1
    13     1     2    1
    14     2     3    1
    15     3    22    1
    16    22    23   am
    17    23    24    2
    18    23    26    1
    19    26    27    1
    20    27    28   am
    21    28    29    2
    22    28    31    1
    23    31    32   ar
    24    32    33   ar
    25    33    34   ar
    26    34    35   ar
    27    35    37    1
    28    37    38    1
    29    37    39    1
    30    37    40    1
    31    35    36   ar
    32     3     4    1
    33     9    10    1
    34    10    11    1
    35    16    17   ar
    36    17    18   ar
    37    18    13   ar
    38    11     5    1
    39     4     1    1
    40    36    31   ar
    41     6    12    1
    42    22    25    1
    43    27    30    1
@<TRIPOS>MOLECULE
*****
 40 43 0 0 0
SMALL
GASTEIGER

@<TRIPOS>ATOM
      1 N         143.3887  140.4465  160.9723 N.3     1  UNL1       -0.2711
      2 C         143.9363  139.1691  160.4081 C.3     1  UNL1        0.0933
      3 C         143.3589  139.5138  159.0673 C.3     1  UNL1        0.1035
      4 C         142.8112  140.7912  159.6315 C.3     1  UNL1        0.0933
      5 C         143.4522  142.4249  165.0136 C.3     1  UNL1        0.1085
      6 O         144.1782  143.5117  165.7496 O.3     1  UNL1       -0.3826
      7 C         142.4854  141.3115  164.7387 C.3     1  UNL1        0.0326
      8 C         142.4642  140.6521  163.3916 C.3     1  UNL1        0.0187
      9 C         143.4098  141.1059  162.3194 C.3     1  UNL1        0.0578
     10 C         144.3767  142.2193  162.5943 C.3     1  UNL1        0.0187
     11 C         144.3979  142.8788  163.9414 C.3     1  UNL1        0.0326
     12 H         143.8273  143.5818  166.6512 H       1  UNL1        0.2107
     13 C         141.3716  142.1956  168.9971 C.ar    1  UNL1        0.1318
     14 C         142.8699  142.2262  168.9342 C.ar    1  UNL1        0.0341
     15 C         143.5635  142.3026  167.6064 C.ar    1  UNL1        0.0024
     16 C         142.7587  142.3485  166.3414 C.ar    1  UNL1        0.0210
     17 C         141.2604  142.3179  166.4043 C.ar    1  UNL1        0.0982
     18 N         140.5668  142.2415  167.7321 N.ar    1  UNL1       -0.2294
     19 C         139.7219  143.1997  170.7350 C.3     1  UNL1        0.1136
     20 N         140.6781  142.1191  170.3249 N.pl3   1  UNL1       -0.2897
     21 C         140.9407  140.9622  171.2427 C.3     1  UNL1        0.1136
     22 N         143.3378  138.8543  157.7202 N.am    1  UNL1       -0.3018
     23 C         144.2613  139.3295  156.6380 C.2     1  UNL1        0.2426
     24 O         145.2059  140.4642  156.9028 O.2     1  UNL1       -0.2733
     25 H         142.7178  138.1095  157.5464 H       1  UNL1        0.1495
     26 C         144.2402  138.6700  155.2908 C.3     1  UNL1        0.1759
     27 N         144.3446  137.1774  155.1848 N.am    1  UNL1       -0.2931
     28 C         143.1385  136.3216  155.4357 C.2     1  UNL1        0.2462
     29 O         141.8281  136.9584  155.7926 O.2     1  UNL1       -0.2701
     30 H         145.2046  136.7595  154.9506 H       1  UNL1        0.1502
     31 C         143.2428  134.8290  155.3297 C.ar    1  UNL1        0.0533
     32 C         142.6347  134.1159  154.1586 C.ar    1  UNL1        0.0045
     33 C         142.7390  132.6233  154.0526 C.ar    1  UNL1        0.0001
     34 C         143.4515  131.8438  155.1178 C.ar    1  UNL1        0.0039
     35 C         144.0597  132.5568  156.2890 C.ar    1  UNL1        0.0716
     36 C         143.9553  134.0494  156.3950 C.ar    1  UNL1        0.0084
     37 C         144.7722  131.7773  157.3542 C.3     1  UNL1        0.4186
     38 F         145.4846  130.9978  158.4194 F       1  UNL1       -0.1659
     39 F         144.5481  130.5130  156.5788 F       1  UNL1       -0.1659
     40 F         144.9962  133.0417  158.1297 F       1  UNL1       -0.1659
@<TRIPOS>BOND
     1    19    20    1
     2    20    21    1
     3    20    13    1
     4    13    14   ar
     5    14    15   ar
     6    15    16   ar
     7    16     5    1
     8     5     6    1
     9     5     7    1
    10     7     8    1
    11     8     9    1
    12     9     1    1
    13     1     2    1
    14     2     3    1
    15     3    22    1
    16    22    23   am
    17    23    24    2
    18    23    26    1
    19    26    27    1
    20    27    28   am
    21    28    29    2
    22    28    31    1
    23    31    32   ar
    24    32    33   ar
    25    33    34   ar
    26    34    35   ar
    27    35    37    1
    28    37    38    1
    29    37    39    1
    30    37    40    1
    31    35    36   ar
    32     3     4    1
    33     9    10    1
    34    10    11    1
    35    16    17   ar
    36    17    18   ar
    37    18    13   ar
    38    11     5    1
    39     4     1    1
    40    36    31   ar
    41     6    12    1
    42    22    25    1
    43    27    30    1
@<TRIPOS>MOLECULE
*****
 40 43 0 0 0
SMALL
GASTEIGER

@<TRIPOS>ATOM
      1 N         140.7159  143.3400  159.1040 N.3     1  UNL1       -0.2711
      2 C         140.8658  143.4558  160.5920 C.3     1  UNL1        0.0933
      3 C         141.4416  142.0716  160.6417 C.3     1  UNL1        0.1035
      4 C         141.2917  141.9558  159.1537 C.3     1  UNL1        0.0933
      5 C         139.1762  146.0306  155.8422 C.3     1  UNL1        0.1085
      6 O         138.3635  145.9613  154.5833 O.3     1  UNL1       -0.3826
      7 C         139.9980  146.6014  156.9597 C.3     1  UNL1        0.0326
      8 C         140.5112  145.7045  158.0470 C.3     1  UNL1        0.0187
      9 C         140.2027  144.2369  158.0168 C.3     1  UNL1        0.0578
     10 C         139.3809  143.6661  156.8992 C.3     1  UNL1        0.0187
     11 C         138.8676  144.5631  155.8119 C.3     1  UNL1        0.0326
     12 H         138.2920  146.8474  154.1954 H       1  UNL1        0.2107
     13 C         139.2551  150.3611  154.6214 C.ar    1  UNL1        0.1318
     14 C         138.5392  149.9477  155.8729 C.ar    1  UNL1        0.0341
     15 C         138.5129  148.5042  156.2799 C.ar    1  UNL1        0.0024
     16 C         139.2025  147.4741  155.4352 C.ar    1  UNL1        0.0210
     17 C         139.9184  147.8876  154.1837 C.ar    1  UNL1        0.0982
     18 N         139.9447  149.3311  153.7767 N.ar    1  UNL1       -0.2294
     19 C         139.9123  152.2059  152.9141 C.3     1  UNL1        0.1136
     20 N         139.2815  151.8047  154.2144 N.pl3   1  UNL1       -0.2897
     21 C         138.6769  152.8469  155.1078 C.3     1  UNL1        0.1136
     22 N         141.9548  141.1747  161.7290 N.am    1  UNL1       -0.3018
     23 C         143.4245  141.1183  162.0234 C.2     1  UNL1        0.2426
     24 O         144.3810  141.9587  161.2306 O.2     1  UNL1       -0.2733
     25 H         141.3270  140.6230  162.2494 H       1  UNL1        0.1495
     26 C         143.9377  140.2214  163.1108 C.3     1  UNL1        0.1759
     27 N         143.3778  140.3287  164.4982 N.am    1  UNL1       -0.2931
     28 C         142.0806  139.6562  164.8376 C.2     1  UNL1        0.2462
     29 O         141.3435  138.8765  163.7894 O.2     1  UNL1       -0.2701
     30 H         143.8617  140.8405  165.1861 H       1  UNL1        0.1502
     31 C         141.5207  139.7636  166.2250 C.ar    1  UNL1        0.0533
     32 C         140.0488  139.9711  166.4258 C.ar    1  UNL1        0.0045
     33 C         139.4889  140.0784  167.8132 C.ar    1  UNL1        0.0001
     34 C         140.4010  139.9782  168.9999 C.ar    1  UNL1        0.0039
     35 C         141.8729  139.7707  168.7991 C.ar    1  UNL1        0.0716
     36 C         142.4328  139.6634  167.4117 C.ar    1  UNL1        0.0084
     37 C         142.7850  139.6705  169.9857 C.3     1  UNL1        0.4186
     38 F         143.6970  139.5704  171.1723 F       1  UNL1       -0.1659
     39 F         143.3712  141.0093  169.6481 F       1  UNL1       -0.1659
     40 F         142.1988  138.3317  170.3233 F       1  UNL1       -0.1659
@<TRIPOS>BOND
     1    19    20    1
     2    20    21    1
     3    20    13    1
     4    13    14   ar
     5    14    15   ar
     6    15    16   ar
     7    16     5    1
     8     5     6    1
     9     5     7    1
    10     7     8    1
    11     8     9    1
    12     9     1    1
    13     1     2    1
    14     2     3    1
    15     3    22    1
    16    22    23   am
    17    23    24    2
    18    23    26    1
    19    26    27    1
    20    27    28   am
    21    28    29    2
    22    28    31    1
    23    31    32   ar
    24    32    33   ar
    25    33    34   ar
    26    34    35   ar
    27    35    37    1
    28    37    38    1
    29    37    39    1
    30    37    40    1
    31    35    36   ar
    32     3     4    1
    33     9    10    1
    34    10    11    1
    35    16    17   ar
    36    17    18   ar
    37    18    13   ar
    38    11     5    1
    39     4     1    1
    40    36    31   ar
    41     6    12    1
    42    22    25    1
    43    27    30    1
@<TRIPOS>MOLECULE
*****
 40 43 0 0 0
SMALL
GASTEIGER

@<TRIPOS>ATOM
      1 N         143.1637  140.0616  159.3980 N.3     1  UNL1       -0.2711
      2 C         142.7115  140.0659  160.8282 C.3     1  UNL1        0.0933
      3 C         143.2020  141.4754  160.9791 C.3     1  UNL1        0.1035
      4 C         143.6543  141.4710  159.5489 C.3     1  UNL1        0.0933
      5 C         143.0824  137.0623  156.0443 C.3     1  UNL1        0.1085
      6 O         143.3413  136.9809  154.5690 O.3     1  UNL1       -0.3826
      7 C         142.7190  136.6401  157.4370 C.3     1  UNL1        0.0326
      8 C         142.7461  137.6398  158.5549 C.3     1  UNL1        0.0187
      9 C         143.1366  139.0618  158.2802 C.3     1  UNL1        0.0578
     10 C         143.4999  139.4840  156.8875 C.3     1  UNL1        0.0187
     11 C         143.4728  138.4843  155.7695 C.3     1  UNL1        0.0326
     12 H         143.1832  136.0742  154.2626 H       1  UNL1        0.2107
     13 C         142.1808  132.7115  155.3316 C.ar    1  UNL1        0.1318
     14 C         143.4912  133.1162  155.9390 C.ar    1  UNL1        0.0341
     15 C         143.7917  134.5665  156.1766 C.ar    1  UNL1        0.0024
     16 C         142.7818  135.6121  155.8067 C.ar    1  UNL1        0.0210
     17 C         141.4714  135.2074  155.1993 C.ar    1  UNL1        0.0982
     18 N         141.1709  133.7571  154.9618 N.ar    1  UNL1       -0.2294
     19 C         142.9564  130.2326  155.2773 C.3     1  UNL1        0.1136
     20 N         141.8803  131.2613  155.0941 N.pl3   1  UNL1       -0.2897
     21 C         140.5036  130.8397  154.6733 C.3     1  UNL1        0.1136
     22 N         143.2292  142.4752  162.0970 N.am    1  UNL1       -0.3018
     23 C         144.4293  142.5669  162.9922 C.2     1  UNL1        0.2426
     24 O         145.6022  141.6589  162.7694 O.2     1  UNL1       -0.2733
     25 H         142.4593  143.0711  162.2432 H       1  UNL1        0.1495
     26 C         144.4564  143.5667  164.1101 C.3     1  UNL1        0.1759
     27 N         144.1460  143.1327  165.5120 N.am    1  UNL1       -0.2931
     28 C         142.7875  142.5912  165.8461 C.2     1  UNL1        0.2462
     29 O         141.7397  142.4838  164.7782 O.2     1  UNL1       -0.2701
     30 H         144.8338  143.2032  166.2129 H       1  UNL1        0.1502
     31 C         142.4771  142.1573  167.2479 C.ar    1  UNL1        0.0533
     32 C         143.4908  142.3542  168.3358 C.ar    1  UNL1        0.0045
     33 C         143.1803  141.9203  169.7377 C.ar    1  UNL1        0.0001
     34 C         141.8561  141.2894  170.0517 C.ar    1  UNL1        0.0039
     35 C         140.8425  141.0924  168.9638 C.ar    1  UNL1        0.0716
     36 C         141.1529  141.5264  167.5619 C.ar    1  UNL1        0.0084
     37 C         139.5183  140.4615  169.2777 C.3     1  UNL1        0.4186
     38 F         138.1942  139.8307  169.5916 F       1  UNL1       -0.1659
     39 F         139.1828  140.4384  167.8159 F       1  UNL1       -0.1659
     40 F         139.8538  140.4847  170.7396 F       1  UNL1       -0.1659
@<TRIPOS>BOND
     1    19    20    1
     2    20    21    1
     3    20    13    1
     4    13    14   ar
     5    14    15   ar
     6    15    16   ar
     7    16     5    1
     8     5     6    1
     9     5     7    1
    10     7     8    1
    11     8     9    1
    12     9     1    1
    13     1     2    1
    14     2     3    1
    15     3    22    1
    16    22    23   am
    17    23    24    2
    18    23    26    1
    19    26    27    1
    20    27    28   am
    21    28    29    2
    22    28    31    1
    23    31    32   ar
    24    32    33   ar
    25    33    34   ar
    26    34    35   ar
    27    35    37    1
    28    37    38    1
    29    37    39    1
    30    37    40    1
    31    35    36   ar
    32     3     4    1
    33     9    10    1
    34    10    11    1
    35    16    17   ar
    36    17    18   ar
    37    18    13   ar
    38    11     5    1
    39     4     1    1
    40    36    31   ar
    41     6    12    1
    42    22    25    1
    43    27    30    1
@<TRIPOS>MOLECULE
*****
 40 43 0 0 0
SMALL
GASTEIGER

@<TRIPOS>ATOM
      1 N         140.7894  138.8004  160.4545 N.3     1  UNL1       -0.2711
      2 C         142.0755  138.1424  160.0508 C.3     1  UNL1        0.0933
      3 C         141.6047  138.0954  158.6274 C.3     1  UNL1        0.1035
      4 C         140.3186  138.7534  159.0310 C.3     1  UNL1        0.0933
      5 C         139.0599  140.2959  164.3303 C.3     1  UNL1        0.1085
      6 O         137.7333  140.6417  164.9390 O.3     1  UNL1       -0.3826
      7 C         140.5405  140.0952  164.1977 C.3     1  UNL1        0.0326
      8 C         141.1170  139.5967  162.9057 C.3     1  UNL1        0.0187
      9 C         140.2130  139.2989  161.7464 C.3     1  UNL1        0.0578
     10 C         138.7324  139.4996  161.8791 C.3     1  UNL1        0.0187
     11 C         138.1559  139.9981  163.1711 C.3     1  UNL1        0.0326
     12 H         137.8645  140.9378  165.8534 H       1  UNL1        0.2107
     13 C         140.3900  141.5495  168.4424 C.ar    1  UNL1        0.1318
     14 C         139.7383  140.2138  168.2397 C.ar    1  UNL1        0.0341
     15 C         139.2950  139.7959  166.8690 C.ar    1  UNL1        0.0024
     16 C         139.5033  140.7138  165.7010 C.ar    1  UNL1        0.0210
     17 C         140.1550  142.0495  165.9038 C.ar    1  UNL1        0.0982
     18 N         140.5983  142.4673  167.2745 N.ar    1  UNL1       -0.2294
     19 C         141.4305  143.3268  170.0263 C.3     1  UNL1        0.1136
     20 N         140.8333  141.9674  169.8131 N.pl3   1  UNL1       -0.2897
     21 C         140.6795  141.0260  170.9707 C.3     1  UNL1        0.1136
     22 N         142.1812  137.5968  157.3354 N.am    1  UNL1       -0.3018
     23 C         143.3241  138.3259  156.6933 C.2     1  UNL1        0.2426
     24 O         143.8904  139.5534  157.3432 O.2     1  UNL1       -0.2733
     25 H         141.8095  136.7911  156.9089 H       1  UNL1        0.1495
     26 C         143.9006  137.8274  155.4013 C.3     1  UNL1        0.1759
     27 N         143.9629  136.3540  155.1269 N.am    1  UNL1       -0.2931
     28 C         142.7182  135.6088  154.7456 C.2     1  UNL1        0.2462
     29 O         141.4112  136.3371  154.6387 O.2     1  UNL1       -0.2701
     30 H         144.8208  135.8761  155.1971 H       1  UNL1        0.1502
     31 C         142.7805  134.1355  154.4712 C.ar    1  UNL1        0.0533
     32 C         142.2071  133.5845  153.1994 C.ar    1  UNL1        0.0045
     33 C         142.2694  132.1111  152.9250 C.ar    1  UNL1        0.0001
     34 C         142.9053  131.1887  153.9225 C.ar    1  UNL1        0.0039
     35 C         143.4788  131.7397  155.1943 C.ar    1  UNL1        0.0716
     36 C         143.4164  133.2131  155.4687 C.ar    1  UNL1        0.0084
     37 C         144.1146  130.8173  156.1918 C.3     1  UNL1        0.4186
     38 F         144.7504  129.8950  157.1891 F       1  UNL1       -0.1659
     39 F         145.2017  130.5024  155.2074 F       1  UNL1       -0.1659
     40 F         143.0274  131.1322  157.1761 F       1  UNL1       -0.1659
@<TRIPOS>BOND
     1    19    20    1
     2    20    21    1
     3    20    13    1
     4    13    14   ar
     5    14    15   ar
     6    15    16   ar
     7    16     5    1
     8     5     6    1
     9     5     7    1
    10     7     8    1
    11     8     9    1
    12     9     1    1
    13     1     2    1
    14     2     3    1
    15     3    22    1
    16    22    23   am
    17    23    24    2
    18    23    26    1
    19    26    27    1
    20    27    28   am
    21    28    29    2
    22    28    31    1
    23    31    32   ar
    24    32    33   ar
    25    33    34   ar
    26    34    35   ar
    27    35    37    1
    28    37    38    1
    29    37    39    1
    30    37    40    1
    31    35    36   ar
    32     3     4    1
    33     9    10    1
    34    10    11    1
    35    16    17   ar
    36    17    18   ar
    37    18    13   ar
    38    11     5    1
    39     4     1    1
    40    36    31   ar
    41     6    12    1
    42    22    25    1
    43    27    30    1
@<TRIPOS>MOLECULE
*****
 40 43 0 0 0
SMALL
GASTEIGER

@<TRIPOS>ATOM
      1 N         144.1942  142.3444  158.6525 N.3     1  UNL1       -0.2711
      2 C         143.9935  141.5817  159.9285 C.3     1  UNL1        0.0933
      3 C         142.9299  142.5549  160.3429 C.3     1  UNL1        0.1035
      4 C         143.1305  143.3175  159.0669 C.3     1  UNL1        0.0933
      5 C         146.8761  141.8975  155.0668 C.3     1  UNL1        0.1085
      6 O         146.8378  141.3754  153.6611 O.3     1  UNL1       -0.3826
      7 C         147.4036  142.5216  156.3247 C.3     1  UNL1        0.0326
      8 C         146.5095  142.6705  157.5200 C.3     1  UNL1        0.0187
      9 C         145.0882  142.1954  157.4573 C.3     1  UNL1        0.0578
     10 C         144.5608  141.5713  156.1994 C.3     1  UNL1        0.0187
     11 C         145.4548  141.4224  155.0042 C.3     1  UNL1        0.0326
     12 H         147.7053  141.5009  153.2458 H       1  UNL1        0.2107
     13 C         151.1003  142.7789  153.7903 C.ar    1  UNL1        0.1318
     14 C         149.9485  143.3382  153.0090 C.ar    1  UNL1        0.0341
     15 C         148.5404  143.0444  153.4345 C.ar    1  UNL1        0.0024
     16 C         148.2842  142.1913  154.6413 C.ar    1  UNL1        0.0210
     17 C         149.4360  141.6320  155.4226 C.ar    1  UNL1        0.0982
     18 N         150.8440  141.9258  154.9971 N.ar    1  UNL1       -0.2294
     19 C         153.5914  142.0641  153.6085 C.3     1  UNL1        0.1136
     20 N         152.5083  143.0727  153.3648 N.pl3   1  UNL1       -0.2897
     21 C         152.8333  144.3752  152.6955 C.3     1  UNL1        0.1136
     22 N         142.0358  142.7037  161.5381 N.am    1  UNL1       -0.3018
     23 C         140.8369  141.8157  161.6932 C.2     1  UNL1        0.2426
     24 O         140.5320  140.7789  160.6530 O.2     1  UNL1       -0.2733
     25 H         142.2359  143.3843  162.2208 H       1  UNL1        0.1495
     26 C         139.9429  141.9646  162.8884 C.3     1  UNL1        0.1759
     27 N         140.5176  142.3923  164.2063 N.am    1  UNL1       -0.2931
     28 C         140.6528  141.3999  165.3230 C.2     1  UNL1        0.2462
     29 O         140.2132  139.9800  165.1218 O.2     1  UNL1       -0.2701
     30 H         140.8062  143.3242  164.3383 H       1  UNL1        0.1502
     31 C         141.2276  141.8276  166.6408 C.ar    1  UNL1        0.0533
     32 C         142.7133  141.8261  166.8470 C.ar    1  UNL1        0.0045
     33 C         143.2881  142.2538  168.1648 C.ar    1  UNL1        0.0001
     34 C         142.3770  142.6829  169.2766 C.ar    1  UNL1        0.0039
     35 C         140.8913  142.6844  169.0704 C.ar    1  UNL1        0.0716
     36 C         140.3165  142.2567  167.7526 C.ar    1  UNL1        0.0084
     37 C         139.9802  143.1135  170.1821 C.3     1  UNL1        0.4186
     38 F         139.0693  143.5426  171.2938 F       1  UNL1       -0.1659
     39 F         140.5414  144.5025  170.1058 F       1  UNL1       -0.1659
     40 F         139.4191  141.7245  170.2584 F       1  UNL1       -0.1659
@<TRIPOS>BOND
     1    19    20    1
     2    20    21    1
     3    20    13    1
     4    13    14   ar
     5    14    15   ar
     6    15    16   ar
     7    16     5    1
     8     5     6    1
     9     5     7    1
    10     7     8    1
    11     8     9    1
    12     9     1    1
    13     1     2    1
    14     2     3    1
    15     3    22    1
    16    22    23   am
    17    23    24    2
    18    23    26    1
    19    26    27    1
    20    27    28   am
    21    28    29    2
    22    28    31    1
    23    31    32   ar
    24    32    33   ar
    25    33    34   ar
    26    34    35   ar
    27    35    37    1
    28    37    38    1
    29    37    39    1
    30    37    40    1
    31    35    36   ar
    32     3     4    1
    33     9    10    1
    34    10    11    1
    35    16    17   ar
    36    17    18   ar
    37    18    13   ar
    38    11     5    1
    39     4     1    1
    40    36    31   ar
    41     6    12    1
    42    22    25    1
    43    27    30    1
@<TRIPOS>MOLECULE
*****
 40 43 0 0 0
SMALL
GASTEIGER

@<TRIPOS>ATOM
      1 N         142.9680  139.5212  160.8989 N.3     1  UNL1       -0.2711
      2 C         142.7408  138.0816  160.5438 C.3     1  UNL1        0.0933
      3 C         142.8843  138.4178  159.0891 C.3     1  UNL1        0.1035
      4 C         143.1115  139.8574  159.4442 C.3     1  UNL1        0.0933
      5 C         143.1458  141.8615  164.7384 C.3     1  UNL1        0.1085
      6 O         143.8528  143.0439  165.3316 O.3     1  UNL1       -0.3826
      7 C         142.2248  140.6835  164.6201 C.3     1  UNL1        0.0326
      8 C         142.1655  139.9034  163.3402 C.3     1  UNL1        0.0187
      9 C         143.0272  140.3012  162.1788 C.3     1  UNL1        0.0578
     10 C         143.9483  141.4792  162.2971 C.3     1  UNL1        0.0187
     11 C         144.0076  142.2593  163.5769 C.3     1  UNL1        0.0326
     12 H         143.5477  143.1796  166.2424 H       1  UNL1        0.2107
     13 C         141.2971  141.8998  168.8409 C.ar    1  UNL1        0.1318
     14 C         142.7293  142.3072  168.6598 C.ar    1  UNL1        0.0341
     15 C         143.3455  142.2945  167.2923 C.ar    1  UNL1        0.0024
     16 C         142.5296  141.8743  166.1059 C.ar    1  UNL1        0.0210
     17 C         141.0974  141.4668  166.2870 C.ar    1  UNL1        0.0982
     18 N         140.4812  141.4796  167.6545 N.ar    1  UNL1       -0.2294
     19 C         139.8216  143.0663  170.6331 C.3     1  UNL1        0.1136
     20 N         140.6809  141.9126  170.2084 N.pl3   1  UNL1       -0.2897
     21 C         140.9240  140.7716  171.1513 C.3     1  UNL1        0.1136
     22 N         142.8250  137.6377  157.8092 N.am    1  UNL1       -0.3018
     23 C         141.5077  137.4139  157.1276 C.2     1  UNL1        0.2426
     24 O         140.2497  137.9703  157.7257 O.2     1  UNL1       -0.2733
     25 H         143.6507  137.2725  157.4166 H       1  UNL1        0.1495
     26 C         141.4485  136.6338  155.8477 C.3     1  UNL1        0.1759
     27 N         141.3991  135.1351  155.8846 N.am    1  UNL1       -0.2931
     28 C         142.6584  134.3482  156.0971 C.2     1  UNL1        0.2462
     29 O         143.9669  135.0601  156.2726 O.2     1  UNL1       -0.2701
     30 H         140.5402  134.6679  155.7694 H       1  UNL1        0.1502
     31 C         142.6090  132.8494  156.1339 C.ar    1  UNL1        0.0533
     32 C         141.7307  132.1041  155.1732 C.ar    1  UNL1        0.0045
     33 C         141.6814  130.6054  155.2100 C.ar    1  UNL1        0.0001
     34 C         142.5103  129.8520  156.2077 C.ar    1  UNL1        0.0039
     35 C         143.3885  130.5973  157.1685 C.ar    1  UNL1        0.0716
     36 C         143.4379  132.0960  157.1316 C.ar    1  UNL1        0.0084
     37 C         144.2175  129.8439  158.1662 C.3     1  UNL1        0.4186
     38 F         145.0463  129.0906  159.1638 F       1  UNL1       -0.1659
     39 F         145.2346  130.9463  158.1535 F       1  UNL1       -0.1659
     40 F         143.2003  128.7415  158.1788 F       1  UNL1       -0.1659
@<TRIPOS>BOND
     1    19    20    1
     2    20    21    1
     3    20    13    1
     4    13    14   ar
     5    14    15   ar
     6    15    16   ar
     7    16     5    1
     8     5     6    1
     9     5     7    1
    10     7     8    1
    11     8     9    1
    12     9     1    1
    13     1     2    1
    14     2     3    1
    15     3    22    1
    16    22    23   am
    17    23    24    2
    18    23    26    1
    19    26    27    1
    20    27    28   am
    21    28    29    2
    22    28    31    1
    23    31    32   ar
    24    32    33   ar
    25    33    34   ar
    26    34    35   ar
    27    35    37    1
    28    37    38    1
    29    37    39    1
    30    37    40    1
    31    35    36   ar
    32     3     4    1
    33     9    10    1
    34    10    11    1
    35    16    17   ar
    36    17    18   ar
    37    18    13   ar
    38    11     5    1
    39     4     1    1
    40    36    31   ar
    41     6    12    1
    42    22    25    1
    43    27    30    1
