@<TRIPOS>MOLECULE
*****
 36 40 0 0 0
SMALL
GASTEIGER

@<TRIPOS>ATOM
      1 C         138.4360  139.1001  165.0347 C.ar    1  UNL1        0.1352
      2 C         137.9216  140.2888  164.2781 C.ar    1  UNL1        0.0719
      3 C         137.8566  140.2535  162.7800 C.ar    1  UNL1        0.1498
      4 C         138.3059  139.0295  162.0384 C.ar    1  UNL1        0.0582
      5 C         138.8203  137.8408  162.7949 C.ar    1  UNL1        0.1035
      6 N         138.8853  137.8761  164.2931 N.ar    1  UNL1       -0.2289
      7 N         138.5010  139.1353  166.5329 N.pl3   1  UNL1       -0.2978
      8 H         137.7538  138.7804  167.0665 H       1  UNL1        0.1536
      9 C         140.7611  140.9677  169.2319 C.ar    1  UNL1        0.1502
     10 C         139.5575  140.3915  168.5468 C.ar    1  UNL1        0.0368
     11 C         139.7047  139.7115  167.2180 C.ar    1  UNL1        0.0509
     12 C         141.0555  139.6076  166.5742 C.ar    1  UNL1        0.0170
     13 C         142.2591  140.1837  167.2593 C.ar    1  UNL1        0.0323
     14 C         142.1119  140.8638  168.5882 C.ar    1  UNL1        0.1587
     15 F         143.3156  141.4399  169.2732 F       1  UNL1       -0.2028
     16 N         140.4667  142.3278  171.8896 N.3     1  UNL1       -0.2034
     17 S         140.6139  141.6477  170.5608 S.O2    1  UNL1        0.0594
     18 O         140.8756  142.9741  169.9110 O.2     1  UNL1       -0.1531
     19 O         140.3522  140.3213  171.2106 O.2     1  UNL1       -0.1531
     20 H         140.7268  143.3099  171.7996 H       1  UNL1        0.1442
     21 H         141.0755  141.8760  172.5721 H       1  UNL1        0.1442
     22 O         137.3422  141.4422  162.0234 O.3     1  UNL1       -0.4505
     23 C         138.3008  142.3508  161.3123 C.ar    1  UNL1        0.1790
     24 C         138.5072  142.4274  159.8286 C.ar    1  UNL1        0.1336
     25 N         139.5553  143.4663  159.5594 N.ar    1  UNL1       -0.2485
     26 N         139.9965  144.0317  160.8769 N.ar    1  UNL1       -0.1705
     27 C         139.2212  143.3423  161.9602 C.ar    1  UNL1        0.1142
     28 C         139.3446  143.5993  163.4328 C.3     1  UNL1        0.0501
     29 C         140.3982  142.8912  164.2320 C.3     1  UNL1        0.0382
     30 C         140.5217  143.1481  165.7047 C.3     1  UNL1        0.1425
     31 O         139.5915  144.1131  166.3782 O.3     1  UNL1       -0.3538
     32 C         138.5380  144.8212  165.5790 C.3     1  UNL1        0.1425
     33 C         138.4145  144.5643  164.1064 C.3     1  UNL1        0.0382
     34 C         140.0714  143.8690  158.2098 C.3     1  UNL1        0.1055
     35 C         140.0021  144.7605  157.0055 C.3     1  UNL1        0.0263
     36 C         141.0348  143.6749  157.0766 C.3     1  UNL1        0.0263
@<TRIPOS>BOND
     1    16    17    1
     2    17    18    2
     3    17    19    2
     4    17     9    1
     5     9    10   ar
     6    10    11   ar
     7    11     7    1
     8     7     1    1
     9     1     2   ar
    10     2     3   ar
    11     3    22    1
    12    22    23    1
    13    23    24   ar
    14    24    25   ar
    15    25    34    1
    16    34    35    1
    17    35    36    1
    18    25    26   ar
    19    26    27   ar
    20    27    28    1
    21    28    29    1
    22    29    30    1
    23    30    31    1
    24    31    32    1
    25    32    33    1
    26     3     4   ar
    27     4     5   ar
    28     5     6   ar
    29    11    12   ar
    30    12    13   ar
    31    13    14   ar
    32    14    15    1
    33    14     9   ar
    34     6     1   ar
    35    27    23   ar
    36    33    28    1
    37    36    34    1
    38    16    20    1
    39    16    21    1
    40     7     8    1
@<TRIPOS>MOLECULE
*****
 36 40 0 0 0
SMALL
GASTEIGER

@<TRIPOS>ATOM
      1 C         139.8988  140.6616  165.0178 C.ar    1  UNL1        0.1352
      2 C         140.1774  142.0784  164.6116 C.ar    1  UNL1        0.0719
      3 C         139.4383  142.6867  163.4567 C.ar    1  UNL1        0.1498
      4 C         138.4205  141.8781  162.7081 C.ar    1  UNL1        0.0582
      5 C         138.1419  140.4613  163.1143 C.ar    1  UNL1        0.1035
      6 N         138.8811  139.8530  164.2692 N.ar    1  UNL1       -0.2289
      7 N         140.6379  140.0533  166.1727 N.pl3   1  UNL1       -0.2978
      8 H         140.7616  139.0777  166.2191 H       1  UNL1        0.1536
      9 C         140.8300  142.3423  169.4090 C.ar    1  UNL1        0.1502
     10 C         140.2795  141.4641  168.3248 C.ar    1  UNL1        0.0368
     11 C         141.1885  140.9315  167.2570 C.ar    1  UNL1        0.0509
     12 C         142.6480  141.2771  167.2735 C.ar    1  UNL1        0.0170
     13 C         143.1985  142.1553  168.3578 C.ar    1  UNL1        0.0323
     14 C         142.2896  142.6879  169.4255 C.ar    1  UNL1        0.1587
     15 F         142.8402  143.5662  170.5098 F       1  UNL1       -0.2028
     16 N         139.0121  143.4075  171.5445 N.3     1  UNL1       -0.2034
     17 S         139.9210  142.8749  170.4768 S.O2    1  UNL1        0.0594
     18 O         139.9288  141.5353  171.1516 O.2     1  UNL1       -0.1531
     19 O         139.9133  144.2145  169.8019 O.2     1  UNL1       -0.1531
     20 H         138.7076  142.6414  172.1451 H       1  UNL1        0.1442
     21 H         138.1982  143.8441  171.1115 H       1  UNL1        0.1442
     22 O         139.7169  144.1035  163.0505 O.3     1  UNL1       -0.4505
     23 C         140.5438  144.3852  161.8312 C.ar    1  UNL1        0.1790
     24 C         140.0415  144.9542  160.5374 C.ar    1  UNL1        0.1336
     25 N         141.2055  145.0681  159.5981 N.ar    1  UNL1       -0.2485
     26 N         142.4273  144.5695  160.3115 N.ar    1  UNL1       -0.1705
     27 C         142.0183  144.1474  161.6915 C.ar    1  UNL1        0.1142
     28 C         142.9246  143.5862  162.7468 C.3     1  UNL1        0.0501
     29 C         143.3842  144.4547  163.8801 C.3     1  UNL1        0.0382
     30 C         144.2905  143.8935  164.9354 C.3     1  UNL1        0.1425
     31 O         144.7373  142.4637  164.8574 O.3     1  UNL1       -0.3538
     32 C         144.2777  141.5952  163.7240 C.3     1  UNL1        0.1425
     33 C         143.3714  142.1564  162.6687 C.3     1  UNL1        0.0382
     34 C         141.1565  145.5892  158.1924 C.3     1  UNL1        0.1055
     35 C         140.3822  146.1847  157.0540 C.3     1  UNL1        0.0263
     36 C         141.8457  145.8961  156.8960 C.3     1  UNL1        0.0263
@<TRIPOS>BOND
     1    16    17    1
     2    17    18    2
     3    17    19    2
     4    17     9    1
     5     9    10   ar
     6    10    11   ar
     7    11     7    1
     8     7     1    1
     9     1     2   ar
    10     2     3   ar
    11     3    22    1
    12    22    23    1
    13    23    24   ar
    14    24    25   ar
    15    25    34    1
    16    34    35    1
    17    35    36    1
    18    25    26   ar
    19    26    27   ar
    20    27    28    1
    21    28    29    1
    22    29    30    1
    23    30    31    1
    24    31    32    1
    25    32    33    1
    26     3     4   ar
    27     4     5   ar
    28     5     6   ar
    29    11    12   ar
    30    12    13   ar
    31    13    14   ar
    32    14    15    1
    33    14     9   ar
    34     6     1   ar
    35    27    23   ar
    36    33    28    1
    37    36    34    1
    38    16    20    1
    39    16    21    1
    40     7     8    1
@<TRIPOS>MOLECULE
*****
 36 40 0 0 0
SMALL
GASTEIGER

@<TRIPOS>ATOM
      1 C         138.0418  140.2276  162.8615 C.ar    1  UNL1        0.1352
      2 C         138.8596  140.1345  164.1156 C.ar    1  UNL1        0.0719
      3 C         139.4748  138.8258  164.5142 C.ar    1  UNL1        0.1498
      4 C         139.2723  137.6104  163.6588 C.ar    1  UNL1        0.0582
      5 C         138.4546  137.7036  162.4048 C.ar    1  UNL1        0.1035
      6 N         137.8393  139.0122  162.0061 N.ar    1  UNL1       -0.2289
      7 N         137.4265  141.5363  162.4629 N.pl3   1  UNL1       -0.2978
      8 H         136.4896  141.5684  162.1623 H       1  UNL1        0.1536
      9 C         139.9935  144.3936  161.4646 C.ar    1  UNL1        0.1502
     10 C         139.1812  143.1340  161.4053 C.ar    1  UNL1        0.0368
     11 C         138.2388  142.7959  162.5223 C.ar    1  UNL1        0.0509
     12 C         138.1087  143.7175  163.6986 C.ar    1  UNL1        0.0170
     13 C         138.9210  144.9771  163.7579 C.ar    1  UNL1        0.0323
     14 C         139.8634  145.3151  162.6409 C.ar    1  UNL1        0.1587
     15 F         140.6757  146.5748  162.7003 F       1  UNL1       -0.2028
     16 N         141.8783  145.0696  159.2307 N.3     1  UNL1       -0.2034
     17 S         140.9359  144.7316  160.3477 S.O2    1  UNL1        0.0594
     18 O         142.0817  144.1911  161.1508 O.2     1  UNL1       -0.1531
     19 O         139.7901  145.2721  159.5445 O.2     1  UNL1       -0.1531
     20 H         142.8389  144.9204  159.5395 H       1  UNL1        0.1442
     21 H         141.7543  146.0466  158.9652 H       1  UNL1        0.1442
     22 O         140.2926  138.7326  165.7682 O.3     1  UNL1       -0.4505
     23 C         140.6853  139.9805  166.5019 C.ar    1  UNL1        0.1790
     24 C         139.9992  140.5459  167.7100 C.ar    1  UNL1        0.1336
     25 N         140.7231  141.7971  168.1111 N.ar    1  UNL1       -0.2485
     26 N         141.8566  142.0049  167.1508 N.ar    1  UNL1       -0.1705
     27 C         141.8333  140.8822  166.1563 C.ar    1  UNL1        0.1142
     28 C         142.7898  140.6942  165.0163 C.3     1  UNL1        0.0501
     29 C         143.7557  139.5466  165.0293 C.3     1  UNL1        0.0382
     30 C         144.7123  139.3585  163.8893 C.3     1  UNL1        0.1425
     31 O         144.7031  140.3179  162.7364 O.3     1  UNL1       -0.3538
     32 C         143.7372  141.4655  162.7234 C.3     1  UNL1        0.1425
     33 C         142.7806  141.6537  163.8634 C.3     1  UNL1        0.0382
     34 C         140.3746  142.6846  169.2691 C.3     1  UNL1        0.1055
     35 C         139.7700  142.8676  170.6296 C.3     1  UNL1        0.0263
     36 C         140.3757  144.0387  169.9143 C.3     1  UNL1        0.0263
@<TRIPOS>BOND
     1    16    17    1
     2    17    18    2
     3    17    19    2
     4    17     9    1
     5     9    10   ar
     6    10    11   ar
     7    11     7    1
     8     7     1    1
     9     1     2   ar
    10     2     3   ar
    11     3    22    1
    12    22    23    1
    13    23    24   ar
    14    24    25   ar
    15    25    34    1
    16    34    35    1
    17    35    36    1
    18    25    26   ar
    19    26    27   ar
    20    27    28    1
    21    28    29    1
    22    29    30    1
    23    30    31    1
    24    31    32    1
    25    32    33    1
    26     3     4   ar
    27     4     5   ar
    28     5     6   ar
    29    11    12   ar
    30    12    13   ar
    31    13    14   ar
    32    14    15    1
    33    14     9   ar
    34     6     1   ar
    35    27    23   ar
    36    33    28    1
    37    36    34    1
    38    16    20    1
    39    16    21    1
    40     7     8    1
@<TRIPOS>MOLECULE
*****
 36 40 0 0 0
SMALL
GASTEIGER

@<TRIPOS>ATOM
      1 C         140.7073  139.1982  161.4390 C.ar    1  UNL1        0.1352
      2 C         140.0889  139.2750  162.8035 C.ar    1  UNL1        0.0719
      3 C         138.6068  139.4567  162.9461 C.ar    1  UNL1        0.1498
      4 C         137.7431  139.5615  161.7242 C.ar    1  UNL1        0.0582
      5 C         138.3614  139.4847  160.3598 C.ar    1  UNL1        0.1035
      6 N         139.8436  139.3030  160.2172 N.ar    1  UNL1       -0.2289
      7 N         142.1894  139.0165  161.2965 N.pl3   1  UNL1       -0.2978
      8 H         142.5453  138.3543  160.6608 H       1  UNL1        0.1536
      9 C         144.0304  142.1679  162.8552 C.ar    1  UNL1        0.1502
     10 C         143.0906  141.3405  162.0293 C.ar    1  UNL1        0.0368
     11 C         143.1293  139.8439  162.1224 C.ar    1  UNL1        0.0509
     12 C         144.1079  139.1747  163.0413 C.ar    1  UNL1        0.0170
     13 C         145.0478  140.0021  163.8671 C.ar    1  UNL1        0.0323
     14 C         145.0090  141.4987  163.7741 C.ar    1  UNL1        0.1587
     15 F         145.9489  142.3261  164.6000 F       1  UNL1       -0.2028
     16 N         143.9529  145.1611  162.6691 N.3     1  UNL1       -0.2034
     17 S         143.9916  143.6645  162.7621 S.O2    1  UNL1        0.0594
     18 O         144.4515  143.5878  161.3364 O.2     1  UNL1       -0.1531
     19 O         143.5318  143.7412  164.1879 O.2     1  UNL1       -0.1531
     20 H         144.3598  145.4573  161.7819 H       1  UNL1        0.1442
     21 H         144.4869  145.5636  163.4393 H       1  UNL1        0.1442
     22 O         137.9884  139.5335  164.3105 O.3     1  UNL1       -0.4505
     23 C         138.7521  140.1467  165.4466 C.ar    1  UNL1        0.1790
     24 C         139.1349  139.4600  166.7241 C.ar    1  UNL1        0.1336
     25 N         139.8865  140.4433  167.5717 N.ar    1  UNL1       -0.2485
     26 N         139.9683  141.7377  166.8180 N.ar    1  UNL1       -0.1705
     27 C         139.2672  141.5544  165.5047 C.ar    1  UNL1        0.1142
     28 C         139.1089  142.5958  164.4369 C.3     1  UNL1        0.0501
     29 C         140.2826  142.9829  163.5868 C.3     1  UNL1        0.0382
     30 C         140.1244  144.0243  162.5189 C.3     1  UNL1        0.1425
     31 O         138.7924  144.6788  162.3011 O.3     1  UNL1       -0.3538
     32 C         137.6187  144.2917  163.1511 C.3     1  UNL1        0.1425
     33 C         137.7769  143.2503  164.2190 C.3     1  UNL1        0.0382
     34 C         140.4564  140.1786  168.9338 C.3     1  UNL1        0.1055
     35 C         140.3742  140.3152  170.4253 C.3     1  UNL1        0.0263
     36 C         141.5255  139.5836  169.8014 C.3     1  UNL1        0.0263
@<TRIPOS>BOND
     1    16    17    1
     2    17    18    2
     3    17    19    2
     4    17     9    1
     5     9    10   ar
     6    10    11   ar
     7    11     7    1
     8     7     1    1
     9     1     2   ar
    10     2     3   ar
    11     3    22    1
    12    22    23    1
    13    23    24   ar
    14    24    25   ar
    15    25    34    1
    16    34    35    1
    17    35    36    1
    18    25    26   ar
    19    26    27   ar
    20    27    28    1
    21    28    29    1
    22    29    30    1
    23    30    31    1
    24    31    32    1
    25    32    33    1
    26     3     4   ar
    27     4     5   ar
    28     5     6   ar
    29    11    12   ar
    30    12    13   ar
    31    13    14   ar
    32    14    15    1
    33    14     9   ar
    34     6     1   ar
    35    27    23   ar
    36    33    28    1
    37    36    34    1
    38    16    20    1
    39    16    21    1
    40     7     8    1
@<TRIPOS>MOLECULE
*****
 36 40 0 0 0
SMALL
GASTEIGER

@<TRIPOS>ATOM
      1 C         142.5495  142.2574  165.1762 C.ar    1  UNL1        0.1352
      2 C         141.3697  142.8868  164.4964 C.ar    1  UNL1        0.0719
      3 C         141.5096  144.2290  163.8414 C.ar    1  UNL1        0.1498
      4 C         142.8292  144.9418  163.8662 C.ar    1  UNL1        0.0582
      5 C         144.0089  144.3124  164.5459 C.ar    1  UNL1        0.1035
      6 N         143.8691  142.9702  165.2009 N.ar    1  UNL1       -0.2289
      7 N         142.4097  140.9153  165.8312 N.pl3   1  UNL1       -0.2978
      8 H         143.0173  140.1811  165.5839 H       1  UNL1        0.1536
      9 C         140.4408  141.0324  169.2750 C.ar    1  UNL1        0.1502
     10 C         141.5064  141.2560  168.2432 C.ar    1  UNL1        0.0368
     11 C         141.3441  140.6916  166.8630 C.ar    1  UNL1        0.0509
     12 C         140.1163  139.9036  166.5145 C.ar    1  UNL1        0.0170
     13 C         139.0508  139.6800  167.5462 C.ar    1  UNL1        0.0323
     14 C         139.2130  140.2444  168.9265 C.ar    1  UNL1        0.1587
     15 F         138.1474  140.0207  169.9583 F       1  UNL1       -0.2028
     16 N         140.7653  142.1612  172.0355 N.3     1  UNL1       -0.2034
     17 S         140.6031  141.5968  170.6552 S.O2    1  UNL1        0.0594
     18 O         141.5114  140.4583  171.0140 O.2     1  UNL1       -0.1531
     19 O         139.6947  142.7353  170.2965 O.2     1  UNL1       -0.1531
     20 H         141.2767  141.4969  172.6165 H       1  UNL1        0.1442
     21 H         139.8461  142.3322  172.4432 H       1  UNL1        0.1442
     22 O         140.3298  144.8584  163.1617 O.3     1  UNL1       -0.4505
     23 C         140.1314  144.6797  161.6857 C.ar    1  UNL1        0.1790
     24 C         140.5354  145.6524  160.6177 C.ar    1  UNL1        0.1336
     25 N         140.1478  145.0708  159.2903 N.ar    1  UNL1       -0.2485
     26 N         139.5044  143.7386  159.5381 N.ar    1  UNL1       -0.1705
     27 C         139.4942  143.4969  161.0185 C.ar    1  UNL1        0.1142
     28 C         138.9436  142.2853  161.7102 C.3     1  UNL1        0.0501
     29 C         139.5403  140.9346  161.4458 C.3     1  UNL1        0.0382
     30 C         138.9897  139.7229  162.1375 C.3     1  UNL1        0.1425
     31 O         137.8425  139.8617  163.0938 O.3     1  UNL1       -0.3538
     32 C         137.2458  141.2123  163.3583 C.3     1  UNL1        0.1425
     33 C         137.7964  142.4241  162.6665 C.3     1  UNL1        0.0382
     34 C         140.3655  145.7093  157.9506 C.3     1  UNL1        0.1055
     35 C         141.2872  146.1110  156.8374 C.3     1  UNL1        0.0263
     36 C         139.8209  146.4134  156.7433 C.3     1  UNL1        0.0263
@<TRIPOS>BOND
     1    16    17    1
     2    17    18    2
     3    17    19    2
     4    17     9    1
     5     9    10   ar
     6    10    11   ar
     7    11     7    1
     8     7     1    1
     9     1     2   ar
    10     2     3   ar
    11     3    22    1
    12    22    23    1
    13    23    24   ar
    14    24    25   ar
    15    25    34    1
    16    34    35    1
    17    35    36    1
    18    25    26   ar
    19    26    27   ar
    20    27    28    1
    21    28    29    1
    22    29    30    1
    23    30    31    1
    24    31    32    1
    25    32    33    1
    26     3     4   ar
    27     4     5   ar
    28     5     6   ar
    29    11    12   ar
    30    12    13   ar
    31    13    14   ar
    32    14    15    1
    33    14     9   ar
    34     6     1   ar
    35    27    23   ar
    36    33    28    1
    37    36    34    1
    38    16    20    1
    39    16    21    1
    40     7     8    1
@<TRIPOS>MOLECULE
*****
 36 40 0 0 0
SMALL
GASTEIGER

@<TRIPOS>ATOM
      1 C         140.0873  139.3132  164.0867 C.ar    1  UNL1        0.1352
      2 C         139.2987  140.3657  163.3652 C.ar    1  UNL1        0.0719
      3 C         138.2610  139.9667  162.3583 C.ar    1  UNL1        0.1498
      4 C         138.0119  138.5153  162.0728 C.ar    1  UNL1        0.0582
      5 C         138.8005  137.4629  162.7943 C.ar    1  UNL1        0.1035
      6 N         139.8382  137.8619  163.8013 N.ar    1  UNL1       -0.2289
      7 N         141.1250  139.7122  165.0937 N.pl3   1  UNL1       -0.2978
      8 H         140.9375  139.6221  166.0560 H       1  UNL1        0.1536
      9 C         143.8783  142.1978  163.6825 C.ar    1  UNL1        0.1502
     10 C         142.5550  141.6614  164.1417 C.ar    1  UNL1        0.0368
     11 C         142.4485  140.2486  164.6345 C.ar    1  UNL1        0.0509
     12 C         143.6654  139.3723  164.6681 C.ar    1  UNL1        0.0170
     13 C         144.9887  139.9087  164.2089 C.ar    1  UNL1        0.0323
     14 C         145.0952  141.3215  163.7161 C.ar    1  UNL1        0.1587
     15 F         146.4187  141.8579  163.2569 F       1  UNL1       -0.2028
     16 N         144.0913  145.0233  162.6970 N.3     1  UNL1       -0.2034
     17 S         143.9848  143.6105  163.1898 S.O2    1  UNL1        0.0594
     18 O         144.1815  144.0870  164.5984 O.2     1  UNL1       -0.1531
     19 O         143.7882  143.1340  161.7811 O.2     1  UNL1       -0.1531
     20 H         144.1119  145.6604  163.4933 H       1  UNL1        0.1442
     21 H         143.2865  145.2399  162.1090 H       1  UNL1        0.1442
     22 O         137.4724  141.0190  161.6368 O.3     1  UNL1       -0.4505
     23 C         138.1672  141.9761  160.7142 C.ar    1  UNL1        0.1790
     24 C         138.3057  141.8250  159.2282 C.ar    1  UNL1        0.1336
     25 N         139.0696  143.0079  158.7112 N.ar    1  UNL1       -0.2485
     26 N         139.4032  143.8901  159.8777 N.ar    1  UNL1       -0.1705
     27 C         138.8454  143.2525  161.1155 C.ar    1  UNL1        0.1142
     28 C         138.9479  143.7956  162.5099 C.3     1  UNL1        0.0501
     29 C         137.7201  143.9038  163.3648 C.3     1  UNL1        0.0382
     30 C         137.8224  144.4470  164.7592 C.3     1  UNL1        0.1425
     31 O         139.1527  144.8821  165.2989 O.3     1  UNL1       -0.3538
     32 C         140.3805  144.7739  164.4439 C.3     1  UNL1        0.1425
     33 C         140.2781  144.2307  163.0495 C.3     1  UNL1        0.0382
     34 C         139.4357  143.2637  157.2792 C.3     1  UNL1        0.1055
     35 C         139.1127  143.8641  155.9431 C.3     1  UNL1        0.0263
     36 C         140.3928  143.1063  156.1351 C.3     1  UNL1        0.0263
@<TRIPOS>BOND
     1    16    17    1
     2    17    18    2
     3    17    19    2
     4    17     9    1
     5     9    10   ar
     6    10    11   ar
     7    11     7    1
     8     7     1    1
     9     1     2   ar
    10     2     3   ar
    11     3    22    1
    12    22    23    1
    13    23    24   ar
    14    24    25   ar
    15    25    34    1
    16    34    35    1
    17    35    36    1
    18    25    26   ar
    19    26    27   ar
    20    27    28    1
    21    28    29    1
    22    29    30    1
    23    30    31    1
    24    31    32    1
    25    32    33    1
    26     3     4   ar
    27     4     5   ar
    28     5     6   ar
    29    11    12   ar
    30    12    13   ar
    31    13    14   ar
    32    14    15    1
    33    14     9   ar
    34     6     1   ar
    35    27    23   ar
    36    33    28    1
    37    36    34    1
    38    16    20    1
    39    16    21    1
    40     7     8    1
@<TRIPOS>MOLECULE
*****
 36 40 0 0 0
SMALL
GASTEIGER

@<TRIPOS>ATOM
      1 C         138.7397  143.3049  162.5109 C.ar    1  UNL1        0.1352
      2 C         140.1800  142.9291  162.6968 C.ar    1  UNL1        0.0719
      3 C         141.2520  143.9665  162.5396 C.ar    1  UNL1        0.1498
      4 C         140.8838  145.3796  162.1966 C.ar    1  UNL1        0.0582
      5 C         139.4436  145.7553  162.0107 C.ar    1  UNL1        0.1035
      6 N         138.3715  144.7180  162.1679 N.ar    1  UNL1       -0.2289
      7 N         137.6677  142.2676  162.6680 N.pl3   1  UNL1       -0.2978
      8 H         136.7540  142.4520  162.3511 H       1  UNL1        0.1536
      9 C         138.4086  139.5270  165.4411 C.ar    1  UNL1        0.1502
     10 C         138.0886  140.8453  164.8011 C.ar    1  UNL1        0.0368
     11 C         137.9877  140.9493  163.3081 C.ar    1  UNL1        0.0509
     12 C         138.2069  139.7350  162.4551 C.ar    1  UNL1        0.0170
     13 C         138.5270  138.4168  163.0952 C.ar    1  UNL1        0.0323
     14 C         138.6278  138.3128  164.5882 C.ar    1  UNL1        0.1587
     15 F         138.9479  136.9944  165.2283 F       1  UNL1       -0.2028
     16 N         138.6103  139.3190  168.4271 N.3     1  UNL1       -0.2034
     17 S         138.5095  139.4230  166.9341 S.O2    1  UNL1        0.0594
     18 O         137.2677  138.5820  166.9594 O.2     1  UNL1       -0.1531
     19 O         139.7513  140.2640  166.9088 O.2     1  UNL1       -0.1531
     20 H         137.7720  138.8683  168.7939 H       1  UNL1        0.1442
     21 H         138.6973  140.2529  168.8279 H       1  UNL1        0.1442
     22 O         142.6922  143.5907  162.7255 O.3     1  UNL1       -0.4505
     23 C         143.0542  142.2055  163.1729 C.ar    1  UNL1        0.1790
     24 C         142.9353  141.6707  164.5693 C.ar    1  UNL1        0.1336
     25 N         143.4063  140.2465  164.5619 N.ar    1  UNL1       -0.2485
     26 N         143.8161  139.9011  163.1608 N.ar    1  UNL1       -0.1705
     27 C         143.5985  141.1118  162.3024 C.ar    1  UNL1        0.1142
     28 C         143.8765  141.2115  160.8318 C.3     1  UNL1        0.0501
     29 C         143.5361  140.0661  159.9249 C.3     1  UNL1        0.0382
     30 C         143.8140  140.1657  158.4542 C.3     1  UNL1        0.1425
     31 O         144.4323  141.4106  157.8904 O.3     1  UNL1       -0.3538
     32 C         144.7727  142.5559  158.7973 C.3     1  UNL1        0.1425
     33 C         144.4948  142.4564  160.2680 C.3     1  UNL1        0.0382
     34 C         143.4582  139.3289  165.7473 C.3     1  UNL1        0.1055
     35 C         143.9802  138.0868  166.4067 C.3     1  UNL1        0.0263
     36 C         143.0261  138.9815  167.1410 C.3     1  UNL1        0.0263
@<TRIPOS>BOND
     1    16    17    1
     2    17    18    2
     3    17    19    2
     4    17     9    1
     5     9    10   ar
     6    10    11   ar
     7    11     7    1
     8     7     1    1
     9     1     2   ar
    10     2     3   ar
    11     3    22    1
    12    22    23    1
    13    23    24   ar
    14    24    25   ar
    15    25    34    1
    16    34    35    1
    17    35    36    1
    18    25    26   ar
    19    26    27   ar
    20    27    28    1
    21    28    29    1
    22    29    30    1
    23    30    31    1
    24    31    32    1
    25    32    33    1
    26     3     4   ar
    27     4     5   ar
    28     5     6   ar
    29    11    12   ar
    30    12    13   ar
    31    13    14   ar
    32    14    15    1
    33    14     9   ar
    34     6     1   ar
    35    27    23   ar
    36    33    28    1
    37    36    34    1
    38    16    20    1
    39    16    21    1
    40     7     8    1
@<TRIPOS>MOLECULE
*****
 36 40 0 0 0
SMALL
GASTEIGER

@<TRIPOS>ATOM
      1 C         139.4154  139.9338  164.8612 C.ar    1  UNL1        0.1352
      2 C         139.9730  140.5029  163.5903 C.ar    1  UNL1        0.0719
      3 C         140.0953  139.6374  162.3712 C.ar    1  UNL1        0.1498
      4 C         139.6600  138.2028  162.4232 C.ar    1  UNL1        0.0582
      5 C         139.1024  137.6338  163.6941 C.ar    1  UNL1        0.1035
      6 N         138.9801  138.4993  164.9131 N.ar    1  UNL1       -0.2289
      7 N         139.2931  140.7992  166.0803 N.pl3   1  UNL1       -0.2978
      8 H         138.4049  141.0868  166.3927 H       1  UNL1        0.1536
      9 C         141.9106  141.3130  169.0187 C.ar    1  UNL1        0.1502
     10 C         140.6797  140.8857  168.2757 C.ar    1  UNL1        0.0368
     11 C         140.5242  141.2265  166.8233 C.ar    1  UNL1        0.0509
     12 C         141.5997  141.9946  166.1138 C.ar    1  UNL1        0.0170
     13 C         142.8306  142.4218  166.8568 C.ar    1  UNL1        0.0323
     14 C         142.9861  142.0810  168.3093 C.ar    1  UNL1        0.1587
     15 F         144.2172  142.5083  169.0523 F       1  UNL1       -0.2028
     16 N         142.2216  140.6314  171.9237 N.3     1  UNL1       -0.2034
     17 S         142.0661  140.9722  170.4712 S.O2    1  UNL1        0.0594
     18 O         141.1565  142.1080  170.8351 O.2     1  UNL1       -0.1531
     19 O         142.9758  139.8364  170.1073 O.2     1  UNL1       -0.1531
     20 H         141.7814  141.3552  172.4918 H       1  UNL1        0.1442
     21 H         143.2134  140.5738  172.1551 H       1  UNL1        0.1442
     22 O         140.6529  140.2064  161.1003 O.3     1  UNL1       -0.4505
     23 C         141.6344  139.4124  160.2903 C.ar    1  UNL1        0.1790
     24 C         141.3375  138.6811  159.0148 C.ar    1  UNL1        0.1336
     25 N         142.6048  138.0269  158.5497 N.ar    1  UNL1       -0.2485
     26 N         143.6849  138.3540  159.5379 N.ar    1  UNL1       -0.1705
     27 C         143.0852  139.2103  160.6136 C.ar    1  UNL1        0.1142
     28 C         143.8091  139.7667  161.8037 C.3     1  UNL1        0.0501
     29 C         143.8688  138.9810  163.0801 C.3     1  UNL1        0.0382
     30 C         144.5926  139.5374  164.2702 C.3     1  UNL1        0.1425
     31 O         145.2568  140.8795  164.1840 O.3     1  UNL1       -0.3538
     32 C         145.1970  141.6653  162.9077 C.3     1  UNL1        0.1425
     33 C         144.4732  141.1089  161.7175 C.3     1  UNL1        0.0382
     34 C         142.7640  137.1923  157.3136 C.3     1  UNL1        0.1055
     35 C         143.3382  136.9996  155.9413 C.3     1  UNL1        0.0263
     36 C         142.4656  135.9394  156.5449 C.3     1  UNL1        0.0263
@<TRIPOS>BOND
     1    16    17    1
     2    17    18    2
     3    17    19    2
     4    17     9    1
     5     9    10   ar
     6    10    11   ar
     7    11     7    1
     8     7     1    1
     9     1     2   ar
    10     2     3   ar
    11     3    22    1
    12    22    23    1
    13    23    24   ar
    14    24    25   ar
    15    25    34    1
    16    34    35    1
    17    35    36    1
    18    25    26   ar
    19    26    27   ar
    20    27    28    1
    21    28    29    1
    22    29    30    1
    23    30    31    1
    24    31    32    1
    25    32    33    1
    26     3     4   ar
    27     4     5   ar
    28     5     6   ar
    29    11    12   ar
    30    12    13   ar
    31    13    14   ar
    32    14    15    1
    33    14     9   ar
    34     6     1   ar
    35    27    23   ar
    36    33    28    1
    37    36    34    1
    38    16    20    1
    39    16    21    1
    40     7     8    1
@<TRIPOS>MOLECULE
*****
 36 40 0 0 0
SMALL
GASTEIGER

@<TRIPOS>ATOM
      1 C         144.1461  142.4855  164.8478 C.ar    1  UNL1        0.1352
      2 C         144.0128  141.0272  164.5229 C.ar    1  UNL1        0.0719
      3 C         144.1750  140.5561  163.1081 C.ar    1  UNL1        0.1498
      4 C         144.4706  141.5434  162.0181 C.ar    1  UNL1        0.0582
      5 C         144.6039  143.0017  162.3430 C.ar    1  UNL1        0.1035
      6 N         144.4417  143.4727  163.7579 N.ar    1  UNL1       -0.2289
      7 N         143.9839  142.9566  166.2626 N.pl3   1  UNL1       -0.2978
      8 H         144.6515  143.5616  166.6596 H       1  UNL1        0.1536
      9 C         141.8191  141.5928  169.2964 C.ar    1  UNL1        0.1502
     10 C         142.9984  142.0436  168.4864 C.ar    1  UNL1        0.0368
     11 C         142.8046  142.5058  167.0727 C.ar    1  UNL1        0.0509
     12 C         141.4316  142.5173  166.4689 C.ar    1  UNL1        0.0170
     13 C         140.2523  142.0665  167.2789 C.ar    1  UNL1        0.0323
     14 C         140.4461  141.6042  168.6927 C.ar    1  UNL1        0.1587
     15 F         139.2668  141.1535  169.5027 F       1  UNL1       -0.2028
     16 N         142.2067  140.6683  172.1240 N.3     1  UNL1       -0.2034
     17 S         142.0129  141.1305  170.7102 S.O2    1  UNL1        0.0594
     18 O         141.8109  142.5349  171.1971 O.2     1  UNL1       -0.1531
     19 O         142.2149  139.7262  170.2234 O.2     1  UNL1       -0.1531
     20 H         142.2499  141.4775  172.7434 H       1  UNL1        0.1442
     21 H         143.0769  140.1405  172.1929 H       1  UNL1        0.1442
     22 O         144.0417  139.0978  162.7832 O.3     1  UNL1       -0.4505
     23 C         143.2095  138.6631  161.6134 C.ar    1  UNL1        0.1790
     24 C         143.7170  138.3575  160.2353 C.ar    1  UNL1        0.1336
     25 N         142.5448  137.9632  159.3865 N.ar    1  UNL1       -0.2485
     26 N         141.3127  138.0252  160.2399 N.ar    1  UNL1       -0.1705
     27 C         141.7235  138.4578  161.6162 C.ar    1  UNL1        0.1142
     28 C         140.8091  138.6511  162.7894 C.3     1  UNL1        0.0501
     29 C         140.4663  137.4883  163.6727 C.3     1  UNL1        0.0382
     30 C         139.5518  137.6815  164.8459 C.3     1  UNL1        0.1425
     31 O         138.9801  139.0376  165.1358 O.3     1  UNL1       -0.3538
     32 C         139.3229  140.2005  164.2524 C.3     1  UNL1        0.1425
     33 C         140.2374  140.0073  163.0792 C.3     1  UNL1        0.0382
     34 C         142.5956  137.5751  157.9384 C.3     1  UNL1        0.1055
     35 C         142.4137  136.5462  156.8622 C.3     1  UNL1        0.0263
     36 C         142.8656  137.9317  156.5068 C.3     1  UNL1        0.0263
@<TRIPOS>BOND
     1    16    17    1
     2    17    18    2
     3    17    19    2
     4    17     9    1
     5     9    10   ar
     6    10    11   ar
     7    11     7    1
     8     7     1    1
     9     1     2   ar
    10     2     3   ar
    11     3    22    1
    12    22    23    1
    13    23    24   ar
    14    24    25   ar
    15    25    34    1
    16    34    35    1
    17    35    36    1
    18    25    26   ar
    19    26    27   ar
    20    27    28    1
    21    28    29    1
    22    29    30    1
    23    30    31    1
    24    31    32    1
    25    32    33    1
    26     3     4   ar
    27     4     5   ar
    28     5     6   ar
    29    11    12   ar
    30    12    13   ar
    31    13    14   ar
    32    14    15    1
    33    14     9   ar
    34     6     1   ar
    35    27    23   ar
    36    33    28    1
    37    36    34    1
    38    16    20    1
    39    16    21    1
    40     7     8    1
