@<TRIPOS>MOLECULE
*****
 30 32 0 0 0
SMALL
GASTEIGER

@<TRIPOS>ATOM
      1 C         139.0875  137.5151  164.8192 C.3     1  UNL1        0.0337
      2 C         139.5018  138.7234  164.0328 C.3     1  UNL1        0.1467
      3 N         138.7046  138.0865  162.9333 N.am    1  UNL1       -0.2806
      4 C         138.7748  138.9815  161.7316 C.2     1  UNL1        0.3106
      5 O         138.1195  138.7305  160.4059 O.2     1  UNL1       -0.2521
      6 N         139.6152  140.1716  162.0884 N.am    1  UNL1       -0.2050
      7 C         140.0645  140.0121  163.5106 C.2     1  UNL1        0.2527
      8 O         140.9255  140.9726  164.2763 O.2     1  UNL1       -0.2723
      9 H         138.2204  137.2312  162.9903 H       1  UNL1        0.1516
     10 C         140.2123  139.1078  165.2967 C.ar    1  UNL1        0.0021
     11 C         141.6524  138.7356  165.4904 C.ar    1  UNL1       -0.0010
     12 C         142.3628  139.1199  166.7543 C.ar    1  UNL1        0.0181
     13 C         141.6332  139.8764  167.8246 C.ar    1  UNL1        0.1057
     14 C         140.1931  140.2485  167.6309 C.ar    1  UNL1        0.0181
     15 C         139.4826  139.8642  166.3670 C.ar    1  UNL1       -0.0010
     16 S         142.3437  140.2607  169.0885 S.O2    1  UNL1        0.0104
     17 C         143.0541  140.6450  170.3524 C.3     1  UNL1        0.1816
     18 O         141.6786  141.6047  169.0537 O.2     1  UNL1       -0.1686
     19 O         143.0088  138.9167  169.1233 O.2     1  UNL1       -0.1686
     20 C         139.9480  141.3196  161.1821 C.3     1  UNL1        0.1714
     21 C         139.1246  142.5726  161.2258 C.2     1  UNL1        0.1957
     22 O         138.4799  143.0906  159.9744 O.2     1  UNL1       -0.2894
     23 C         138.9459  143.3078  162.5211 C.ar    1  UNL1        0.0640
     24 C         139.8988  144.4025  162.8998 C.ar    1  UNL1        0.0075
     25 C         139.7202  145.1376  164.1950 C.ar    1  UNL1        0.0299
     26 C         138.5886  144.7781  165.1116 C.ar    1  UNL1        0.1424
     27 F         138.4099  145.5132  166.4068 F       1  UNL1       -0.2041
     28 C         137.6356  143.6833  164.7329 C.ar    1  UNL1        0.0593
     29 C         137.8142  142.9482  163.4377 C.ar    1  UNL1        0.1451
     30 F         136.8612  141.8535  163.0590 F       1  UNL1       -0.2040
@<TRIPOS>BOND
     1     1     2    1
     2     2    10    1
     3    10    11   ar
     4    11    12   ar
     5    12    13   ar
     6    13    16    1
     7    16    17    1
     8    16    18    2
     9    16    19    2
    10    13    14   ar
    11    14    15   ar
    12     2     3    1
    13     3     4   am
    14     4     5    2
    15     4     6   am
    16     6    20    1
    17    20    21    1
    18    21    22    2
    19    21    23    1
    20    23    24   ar
    21    24    25   ar
    22    25    26   ar
    23    26    27    1
    24    26    28   ar
    25    28    29   ar
    26    29    30    1
    27     6     7   am
    28     7     8    2
    29     7     2    1
    30    15    10   ar
    31    29    23   ar
    32     3     9    1
@<TRIPOS>MOLECULE
*****
 30 32 0 0 0
SMALL
GASTEIGER

@<TRIPOS>ATOM
      1 C         139.3290  137.6282  164.8502 C.3     1  UNL1        0.0337
      2 C         138.9657  139.0282  164.4529 C.3     1  UNL1        0.1467
      3 N         138.4794  138.3764  163.1925 N.am    1  UNL1       -0.2806
      4 C         137.9331  139.4487  162.2972 C.2     1  UNL1        0.3106
      5 O         137.3418  139.2427  160.9341 O.2     1  UNL1       -0.2521
      6 N         138.0818  140.7633  163.0041 N.am    1  UNL1       -0.2050
      7 C         138.7200  140.5034  164.3365 C.2     1  UNL1        0.2527
      8 O         139.0539  141.5372  165.3708 O.2     1  UNL1       -0.2723
      9 H         138.5128  137.4138  162.9887 H       1  UNL1        0.1516
     10 C         139.5281  139.3874  165.7964 C.ar    1  UNL1        0.0021
     11 C         140.9947  139.6640  165.9459 C.ar    1  UNL1       -0.0010
     12 C         141.5570  140.0231  167.2894 C.ar    1  UNL1        0.0181
     13 C         140.6526  140.1055  168.4833 C.ar    1  UNL1        0.1057
     14 C         139.1860  139.8288  168.3337 C.ar    1  UNL1        0.0181
     15 C         138.6237  139.4698  166.9903 C.ar    1  UNL1       -0.0010
     16 S         141.2150  140.4646  169.8267 S.O2    1  UNL1        0.0104
     17 C         141.7773  140.8237  171.1702 C.3     1  UNL1        0.1816
     18 O         140.2494  139.5227  170.4826 O.2     1  UNL1       -0.1686
     19 O         142.1806  141.4066  169.1708 O.2     1  UNL1       -0.1686
     20 C         137.6654  142.1025  162.4722 C.3     1  UNL1        0.1714
     21 C         138.6068  142.8942  161.6137 C.2     1  UNL1        0.1957
     22 O         138.2664  143.1631  160.1778 O.2     1  UNL1       -0.2894
     23 C         139.8887  143.4170  162.1911 C.ar    1  UNL1        0.0640
     24 C         141.2040  142.9057  161.6826 C.ar    1  UNL1        0.0075
     25 C         142.4858  143.4285  162.2600 C.ar    1  UNL1        0.0299
     26 C         142.4525  144.4625  163.3461 C.ar    1  UNL1        0.1424
     27 F         143.7344  144.9853  163.9236 F       1  UNL1       -0.2041
     28 C         141.1373  144.9738  163.8547 C.ar    1  UNL1        0.0593
     29 C         139.8554  144.4511  163.2773 C.ar    1  UNL1        0.1451
     30 F         138.5401  144.9624  163.7858 F       1  UNL1       -0.2040
@<TRIPOS>BOND
     1     1     2    1
     2     2    10    1
     3    10    11   ar
     4    11    12   ar
     5    12    13   ar
     6    13    16    1
     7    16    17    1
     8    16    18    2
     9    16    19    2
    10    13    14   ar
    11    14    15   ar
    12     2     3    1
    13     3     4   am
    14     4     5    2
    15     4     6   am
    16     6    20    1
    17    20    21    1
    18    21    22    2
    19    21    23    1
    20    23    24   ar
    21    24    25   ar
    22    25    26   ar
    23    26    27    1
    24    26    28   ar
    25    28    29   ar
    26    29    30    1
    27     6     7   am
    28     7     8    2
    29     7     2    1
    30    15    10   ar
    31    29    23   ar
    32     3     9    1
@<TRIPOS>MOLECULE
*****
 30 32 0 0 0
SMALL
GASTEIGER

@<TRIPOS>ATOM
      1 C         145.2627  139.5651  164.3324 C.3     1  UNL1        0.0337
      2 C         143.9226  139.7848  163.6954 C.3     1  UNL1        0.1467
      3 N         144.5470  139.1011  162.5153 N.am    1  UNL1       -0.2806
      4 C         143.5208  139.0316  161.4234 C.2     1  UNL1        0.3106
      5 O         143.7186  138.4274  160.0648 O.2     1  UNL1       -0.2521
      6 N         142.2622  139.6723  161.9287 N.am    1  UNL1       -0.2050
      7 C         142.5105  140.1378  163.3329 C.2     1  UNL1        0.2527
      8 O         141.5205  140.8341  164.2189 O.2     1  UNL1       -0.2723
      9 H         145.4685  138.7582  162.4660 H       1  UNL1        0.1516
     10 C         143.5783  140.4225  165.0087 C.ar    1  UNL1        0.0021
     11 C         142.9941  139.5943  166.1144 C.ar    1  UNL1       -0.0010
     12 C         142.6499  140.2320  167.4277 C.ar    1  UNL1        0.0181
     13 C         142.8899  141.6981  167.6352 C.ar    1  UNL1        0.1057
     14 C         143.4741  142.5264  166.5295 C.ar    1  UNL1        0.0181
     15 C         143.8183  141.8886  165.2163 C.ar    1  UNL1       -0.0010
     16 S         142.5457  142.3359  168.9486 S.O2    1  UNL1        0.0104
     17 C         142.2015  142.9736  170.2619 C.3     1  UNL1        0.1816
     18 O         143.9755  142.7557  169.1194 O.2     1  UNL1       -0.1686
     19 O         141.1158  141.9160  168.7777 O.2     1  UNL1       -0.1686
     20 C         140.9804  139.8213  161.1641 C.3     1  UNL1        0.1714
     21 C         139.8020  138.9558  161.4996 C.2     1  UNL1        0.1957
     22 O         139.1569  138.1209  160.4334 O.2     1  UNL1       -0.2894
     23 C         139.2689  138.9253  162.9013 C.ar    1  UNL1        0.0640
     24 C         139.4936  137.7182  163.7630 C.ar    1  UNL1        0.0075
     25 C         138.9604  137.6877  165.1648 C.ar    1  UNL1        0.0299
     26 C         138.2026  138.8641  165.7048 C.ar    1  UNL1        0.1424
     27 F         137.6694  138.8336  167.1065 F       1  UNL1       -0.2041
     28 C         137.9779  140.0711  164.8430 C.ar    1  UNL1        0.0593
     29 C         138.5110  140.1017  163.4413 C.ar    1  UNL1        0.1451
     30 F         138.2863  141.3088  162.5796 F       1  UNL1       -0.2040
@<TRIPOS>BOND
     1     1     2    1
     2     2    10    1
     3    10    11   ar
     4    11    12   ar
     5    12    13   ar
     6    13    16    1
     7    16    17    1
     8    16    18    2
     9    16    19    2
    10    13    14   ar
    11    14    15   ar
    12     2     3    1
    13     3     4   am
    14     4     5    2
    15     4     6   am
    16     6    20    1
    17    20    21    1
    18    21    22    2
    19    21    23    1
    20    23    24   ar
    21    24    25   ar
    22    25    26   ar
    23    26    27    1
    24    26    28   ar
    25    28    29   ar
    26    29    30    1
    27     6     7   am
    28     7     8    2
    29     7     2    1
    30    15    10   ar
    31    29    23   ar
    32     3     9    1
@<TRIPOS>MOLECULE
*****
 30 32 0 0 0
SMALL
GASTEIGER

@<TRIPOS>ATOM
      1 C         137.5762  142.9146  164.2129 C.3     1  UNL1        0.0337
      2 C         138.8451  142.5265  163.5135 C.3     1  UNL1        0.1467
      3 N         138.1901  143.1490  162.3161 N.am    1  UNL1       -0.2806
      4 C         139.1357  143.0324  161.1576 C.2     1  UNL1        0.3106
      5 O         138.8859  143.5240  159.7627 O.2     1  UNL1       -0.2521
      6 N         140.3751  142.3379  161.6389 N.am    1  UNL1       -0.2050
      7 C         140.1955  142.0253  163.0949 C.2     1  UNL1        0.2527
      8 O         141.1914  141.3329  163.9774 O.2     1  UNL1       -0.2723
      9 H         137.2965  143.5616  162.2945 H       1  UNL1        0.1516
     10 C         139.2348  141.9852  164.8571 C.ar    1  UNL1        0.0021
     11 C         138.8487  140.5882  165.2435 C.ar    1  UNL1       -0.0010
     12 C         139.2384  140.0470  166.5871 C.ar    1  UNL1        0.0181
     13 C         140.0141  140.9027  167.5442 C.ar    1  UNL1        0.1057
     14 C         140.4001  142.2997  167.1577 C.ar    1  UNL1        0.0181
     15 C         140.0105  142.8409  165.8142 C.ar    1  UNL1       -0.0010
     16 S         140.4038  140.3614  168.8878 S.O2    1  UNL1        0.0104
     17 C         140.7934  139.8201  170.2313 C.3     1  UNL1        0.1816
     18 O         141.7586  140.9896  168.7479 O.2     1  UNL1       -0.1686
     19 O         139.0489  139.7331  169.0277 O.2     1  UNL1       -0.1686
     20 C         141.5822  142.0131  160.8097 C.3     1  UNL1        0.1714
     21 C         142.8021  142.8824  160.8884 C.2     1  UNL1        0.1957
     22 O         143.3998  143.4513  159.6358 O.2     1  UNL1       -0.2894
     23 C         143.4243  143.1827  162.2199 C.ar    1  UNL1        0.0640
     24 C         143.0669  144.4449  162.9472 C.ar    1  UNL1        0.0075
     25 C         143.6891  144.7453  164.2786 C.ar    1  UNL1        0.0299
     26 C         144.6687  143.7834  164.8827 C.ar    1  UNL1        0.1424
     27 F         145.2909  144.0837  166.2142 F       1  UNL1       -0.2041
     28 C         145.0261  142.5211  164.1554 C.ar    1  UNL1        0.0593
     29 C         144.4040  142.2207  162.8241 C.ar    1  UNL1        0.1451
     30 F         144.7614  140.9585  162.0968 F       1  UNL1       -0.2040
@<TRIPOS>BOND
     1     1     2    1
     2     2    10    1
     3    10    11   ar
     4    11    12   ar
     5    12    13   ar
     6    13    16    1
     7    16    17    1
     8    16    18    2
     9    16    19    2
    10    13    14   ar
    11    14    15   ar
    12     2     3    1
    13     3     4   am
    14     4     5    2
    15     4     6   am
    16     6    20    1
    17    20    21    1
    18    21    22    2
    19    21    23    1
    20    23    24   ar
    21    24    25   ar
    22    25    26   ar
    23    26    27    1
    24    26    28   ar
    25    28    29   ar
    26    29    30    1
    27     6     7   am
    28     7     8    2
    29     7     2    1
    30    15    10   ar
    31    29    23   ar
    32     3     9    1
@<TRIPOS>MOLECULE
*****
 30 32 0 0 0
SMALL
GASTEIGER

@<TRIPOS>ATOM
      1 C         145.7709  141.4090  163.9600 C.3     1  UNL1        0.0337
      2 C         144.4638  141.6645  163.2700 C.3     1  UNL1        0.1467
      3 N         145.3312  142.0158  162.0977 N.am    1  UNL1       -0.2806
      4 C         144.4359  142.4038  160.9585 C.2     1  UNL1        0.3106
      5 O         144.8829  142.8286  159.5912 O.2     1  UNL1       -0.2521
      6 N         143.0153  142.2923  161.4266 N.am    1  UNL1       -0.2050
      7 C         143.0325  141.8354  162.8553 C.2     1  UNL1        0.2527
      8 O         141.8295  141.5921  163.7177 O.2     1  UNL1       -0.2723
      9 H         146.3153  141.9952  162.0793 H       1  UNL1        0.1516
     10 C         143.8697  141.2598  164.5866 C.ar    1  UNL1        0.0021
     11 C         143.5849  139.8143  164.8682 C.ar    1  UNL1       -0.0010
     12 C         142.9908  139.4096  166.1848 C.ar    1  UNL1        0.0181
     13 C         142.6816  140.4505  167.2196 C.ar    1  UNL1        0.1057
     14 C         142.9664  141.8960  166.9380 C.ar    1  UNL1        0.0181
     15 C         143.5605  142.3006  165.6215 C.ar    1  UNL1       -0.0010
     16 S         142.0874  140.0458  168.5362 S.O2    1  UNL1        0.0104
     17 C         141.4934  139.6411  169.8527 C.3     1  UNL1        0.1816
     18 O         143.0953  138.9409  168.6513 O.2     1  UNL1       -0.1686
     19 O         141.0796  141.1507  168.4211 O.2     1  UNL1       -0.1686
     20 C         141.7921  142.5862  160.6096 C.3     1  UNL1        0.1714
     21 C         141.0544  143.8781  160.8018 C.2     1  UNL1        0.1957
     22 O         141.2873  145.0221  159.8600 O.2     1  UNL1       -0.2894
     23 C         140.0838  144.0260  161.9358 C.ar    1  UNL1        0.0640
     24 C         140.4700  144.8076  163.1564 C.ar    1  UNL1        0.0075
     25 C         139.4994  144.9555  164.2905 C.ar    1  UNL1        0.0299
     26 C         138.1427  144.3218  164.2040 C.ar    1  UNL1        0.1424
     27 F         137.1721  144.4696  165.3380 F       1  UNL1       -0.2041
     28 C         137.7565  143.5401  162.9834 C.ar    1  UNL1        0.0593
     29 C         138.7270  143.3922  161.8494 C.ar    1  UNL1        0.1451
     30 F         138.3408  142.6105  160.6287 F       1  UNL1       -0.2040
@<TRIPOS>BOND
     1     1     2    1
     2     2    10    1
     3    10    11   ar
     4    11    12   ar
     5    12    13   ar
     6    13    16    1
     7    16    17    1
     8    16    18    2
     9    16    19    2
    10    13    14   ar
    11    14    15   ar
    12     2     3    1
    13     3     4   am
    14     4     5    2
    15     4     6   am
    16     6    20    1
    17    20    21    1
    18    21    22    2
    19    21    23    1
    20    23    24   ar
    21    24    25   ar
    22    25    26   ar
    23    26    27    1
    24    26    28   ar
    25    28    29   ar
    26    29    30    1
    27     6     7   am
    28     7     8    2
    29     7     2    1
    30    15    10   ar
    31    29    23   ar
    32     3     9    1
@<TRIPOS>MOLECULE
*****
 30 32 0 0 0
SMALL
GASTEIGER

@<TRIPOS>ATOM
      1 C         144.3001  143.5898  164.7982 C.3     1  UNL1        0.0337
      2 C         142.9720  143.1571  165.3449 C.3     1  UNL1        0.1467
      3 N         143.7715  142.7760  166.5555 N.am    1  UNL1       -0.2806
      4 C         142.8285  142.2064  167.5734 C.2     1  UNL1        0.3106
      5 O         143.2022  141.6972  168.9339 O.2     1  UNL1       -0.2521
      6 N         141.4461  142.2354  166.9919 N.am    1  UNL1       -0.2050
      7 C         141.5348  142.8230  165.6146 C.2     1  UNL1        0.2527
      8 O         140.3876  143.0387  164.6725 O.2     1  UNL1       -0.2723
      9 H         144.7445  142.8813  166.6631 H       1  UNL1        0.1516
     10 C         142.4501  143.6287  164.0200 C.ar    1  UNL1        0.0021
     11 C         141.8769  145.0085  163.8878 C.ar    1  UNL1       -0.0010
     12 C         141.3551  145.4800  162.5629 C.ar    1  UNL1        0.0181
     13 C         141.4065  144.5717  161.3703 C.ar    1  UNL1        0.1057
     14 C         141.9797  143.1919  161.5025 C.ar    1  UNL1        0.0181
     15 C         142.5015  142.7204  162.8274 C.ar    1  UNL1       -0.0010
     16 S         140.8846  145.0433  160.0453 S.O2    1  UNL1        0.0104
     17 C         140.3627  145.5148  158.7205 C.3     1  UNL1        0.1816
     18 O         139.5989  145.4557  160.6986 O.2     1  UNL1       -0.1686
     19 O         142.1703  144.6309  159.3921 O.2     1  UNL1       -0.1686
     20 C         140.1947  141.7603  167.6689 C.3     1  UNL1        0.1714
     21 C         139.9108  140.2912  167.7748 C.2     1  UNL1        0.1957
     22 O         139.3910  139.7184  169.0600 O.2     1  UNL1       -0.2894
     23 C         140.1468  139.3949  166.5954 C.ar    1  UNL1        0.0640
     24 C         141.5474  139.0874  166.1554 C.ar    1  UNL1        0.0075
     25 C         141.7834  138.1911  164.9760 C.ar    1  UNL1        0.0299
     26 C         140.6188  137.6022  164.2366 C.ar    1  UNL1        0.1424
     27 F         140.8547  136.7059  163.0572 F       1  UNL1       -0.2041
     28 C         139.2181  137.9097  164.6766 C.ar    1  UNL1        0.0593
     29 C         138.9821  138.8060  165.8559 C.ar    1  UNL1        0.1451
     30 F         137.5814  139.1134  166.2959 F       1  UNL1       -0.2040
@<TRIPOS>BOND
     1     1     2    1
     2     2    10    1
     3    10    11   ar
     4    11    12   ar
     5    12    13   ar
     6    13    16    1
     7    16    17    1
     8    16    18    2
     9    16    19    2
    10    13    14   ar
    11    14    15   ar
    12     2     3    1
    13     3     4   am
    14     4     5    2
    15     4     6   am
    16     6    20    1
    17    20    21    1
    18    21    22    2
    19    21    23    1
    20    23    24   ar
    21    24    25   ar
    22    25    26   ar
    23    26    27    1
    24    26    28   ar
    25    28    29   ar
    26    29    30    1
    27     6     7   am
    28     7     8    2
    29     7     2    1
    30    15    10   ar
    31    29    23   ar
    32     3     9    1
@<TRIPOS>MOLECULE
*****
 30 32 0 0 0
SMALL
GASTEIGER

@<TRIPOS>ATOM
      1 C         144.9067  140.1460  164.3461 C.3     1  UNL1        0.0337
      2 C         143.4953  140.3415  163.8772 C.3     1  UNL1        0.1467
      3 N         144.0862  140.1353  162.5140 N.am    1  UNL1       -0.2806
      4 C         142.9782  140.2379  161.5083 C.2     1  UNL1        0.3106
      5 O         143.1208  140.0959  160.0218 O.2     1  UNL1       -0.2521
      6 N         141.7025  140.5075  162.2498 N.am    1  UNL1       -0.2050
      7 C         142.0221  140.5715  163.7139 C.2     1  UNL1        0.2527
      8 O         141.0407  140.8216  164.8205 O.2     1  UNL1       -0.2723
      9 H         145.0347  139.9629  162.3145 H       1  UNL1        0.1516
     10 C         143.1995  140.5068  165.3385 C.ar    1  UNL1        0.0021
     11 C         143.2206  141.8726  165.9582 C.ar    1  UNL1       -0.0010
     12 C         142.9248  142.0378  167.4194 C.ar    1  UNL1        0.0181
     13 C         142.6080  140.8373  168.2609 C.ar    1  UNL1        0.1057
     14 C         142.5869  139.4714  167.6413 C.ar    1  UNL1        0.0181
     15 C         142.8827  139.3062  166.1801 C.ar    1  UNL1       -0.0010
     16 S         142.3122  141.0026  169.7222 S.O2    1  UNL1        0.0104
     17 C         142.0164  141.1679  171.1834 C.3     1  UNL1        0.1816
     18 O         141.3985  142.1498  169.4074 O.2     1  UNL1       -0.1686
     19 O         143.2258  139.8554  170.0370 O.2     1  UNL1       -0.1686
     20 C         140.3454  140.6824  161.6351 C.3     1  UNL1        0.1714
     21 C         139.7869  142.0593  161.4297 C.2     1  UNL1        0.1957
     22 O         139.5831  142.5865  160.0403 O.2     1  UNL1       -0.2894
     23 C         139.4323  142.9091  162.6138 C.ar    1  UNL1        0.0640
     24 C         140.4298  143.8866  163.1612 C.ar    1  UNL1        0.0075
     25 C         140.0752  144.7363  164.3453 C.ar    1  UNL1        0.0299
     26 C         138.7231  144.6086  164.9821 C.ar    1  UNL1        0.1424
     27 F         138.3685  145.4584  166.1663 F       1  UNL1       -0.2041
     28 C         137.7257  143.6311  164.4348 C.ar    1  UNL1        0.0593
     29 C         138.0802  142.7814  163.2507 C.ar    1  UNL1        0.1451
     30 F         137.0827  141.8039  162.7034 F       1  UNL1       -0.2040
@<TRIPOS>BOND
     1     1     2    1
     2     2    10    1
     3    10    11   ar
     4    11    12   ar
     5    12    13   ar
     6    13    16    1
     7    16    17    1
     8    16    18    2
     9    16    19    2
    10    13    14   ar
    11    14    15   ar
    12     2     3    1
    13     3     4   am
    14     4     5    2
    15     4     6   am
    16     6    20    1
    17    20    21    1
    18    21    22    2
    19    21    23    1
    20    23    24   ar
    21    24    25   ar
    22    25    26   ar
    23    26    27    1
    24    26    28   ar
    25    28    29   ar
    26    29    30    1
    27     6     7   am
    28     7     8    2
    29     7     2    1
    30    15    10   ar
    31    29    23   ar
    32     3     9    1
@<TRIPOS>MOLECULE
*****
 30 32 0 0 0
SMALL
GASTEIGER

@<TRIPOS>ATOM
      1 C         141.7748  137.2866  164.4069 C.3     1  UNL1        0.0337
      2 C         142.4948  138.5452  164.0229 C.3     1  UNL1        0.1467
      3 N         142.7027  137.8404  162.7152 N.am    1  UNL1       -0.2806
      4 C         143.4763  138.7558  161.8132 C.2     1  UNL1        0.3106
      5 O         143.9045  138.4537  160.4078 O.2     1  UNL1       -0.2521
      6 N         143.7465  140.0263  162.5634 N.am    1  UNL1       -0.2050
      7 C         143.1399  139.8961  163.9291 C.2     1  UNL1        0.2527
      8 O         143.1726  140.9346  165.0110 O.2     1  UNL1       -0.2723
      9 H         142.3869  136.9358  162.4887 H       1  UNL1        0.1516
     10 C         142.1363  138.9868  165.4109 C.ar    1  UNL1        0.0021
     11 C         143.1045  138.7791  166.5376 C.ar    1  UNL1       -0.0010
     12 C         142.7460  139.2207  167.9255 C.ar    1  UNL1        0.0181
     13 C         141.4193  139.8701  168.1868 C.ar    1  UNL1        0.1057
     14 C         140.4511  140.0778  167.0601 C.ar    1  UNL1        0.0181
     15 C         140.8096  139.6362  165.6722 C.ar    1  UNL1       -0.0010
     16 S         141.0608  140.3117  169.5748 S.O2    1  UNL1        0.0104
     17 C         140.7024  140.7533  170.9627 C.3     1  UNL1        0.1816
     18 O         142.4362  140.8847  169.7476 O.2     1  UNL1       -0.1686
     19 O         139.6854  139.7387  169.4019 O.2     1  UNL1       -0.1686
     20 C         144.4923  141.2177  162.0398 C.3     1  UNL1        0.1714
     21 C         143.7402  142.3717  161.4459 C.2     1  UNL1        0.1957
     22 O         144.0269  142.8102  160.0404 O.2     1  UNL1       -0.2894
     23 C         142.7012  143.0871  162.2575 C.ar    1  UNL1        0.0640
     24 C         141.3228  142.5101  162.3879 C.ar    1  UNL1        0.0075
     25 C         140.2839  143.2255  163.1995 C.ar    1  UNL1        0.0299
     26 C         140.6233  144.5180  163.8808 C.ar    1  UNL1        0.1424
     27 F         139.5844  145.2334  164.6925 F       1  UNL1       -0.2041
     28 C         142.0017  145.0951  163.7505 C.ar    1  UNL1        0.0593
     29 C         143.0407  144.3797  162.9389 C.ar    1  UNL1        0.1451
     30 F         144.4191  144.9568  162.8085 F       1  UNL1       -0.2040
@<TRIPOS>BOND
     1     1     2    1
     2     2    10    1
     3    10    11   ar
     4    11    12   ar
     5    12    13   ar
     6    13    16    1
     7    16    17    1
     8    16    18    2
     9    16    19    2
    10    13    14   ar
    11    14    15   ar
    12     2     3    1
    13     3     4   am
    14     4     5    2
    15     4     6   am
    16     6    20    1
    17    20    21    1
    18    21    22    2
    19    21    23    1
    20    23    24   ar
    21    24    25   ar
    22    25    26   ar
    23    26    27    1
    24    26    28   ar
    25    28    29   ar
    26    29    30    1
    27     6     7   am
    28     7     8    2
    29     7     2    1
    30    15    10   ar
    31    29    23   ar
    32     3     9    1
@<TRIPOS>MOLECULE
*****
 30 32 0 0 0
SMALL
GASTEIGER

@<TRIPOS>ATOM
      1 C         137.8321  143.1242  164.4423 C.3     1  UNL1        0.0337
      2 C         139.2537  143.3552  164.0233 C.3     1  UNL1        0.1467
      3 N         138.6294  144.0338  162.8402 N.am    1  UNL1       -0.2806
      4 C         139.7336  144.5321  161.9557 C.2     1  UNL1        0.3106
      5 O         139.5613  145.2713  160.6619 O.2     1  UNL1       -0.2521
      6 N         141.0403  144.1616  162.5921 N.am    1  UNL1       -0.2050
      7 C         140.7437  143.4342  163.8700 C.2     1  UNL1        0.2527
      8 O         141.7590  142.8826  164.8266 O.2     1  UNL1       -0.2723
      9 H         137.6643  144.1344  162.6735 H       1  UNL1        0.1516
     10 C         139.5808  142.6283  165.2941 C.ar    1  UNL1        0.0021
     11 C         139.5164  141.1304  165.3391 C.ar    1  UNL1       -0.0010
     12 C         139.8435  140.4036  166.6098 C.ar    1  UNL1        0.0181
     13 C         140.2349  141.1747  167.8355 C.ar    1  UNL1        0.1057
     14 C         140.2993  142.6726  167.7904 C.ar    1  UNL1        0.0181
     15 C         139.9722  143.3994  166.5197 C.ar    1  UNL1       -0.0010
     16 S         140.5620  140.4478  169.1062 S.O2    1  UNL1        0.0104
     17 C         140.8891  139.7210  170.3769 C.3     1  UNL1        0.1816
     18 O         141.8432  141.2198  169.2179 O.2     1  UNL1       -0.1686
     19 O         139.2808  139.6759  168.9945 O.2     1  UNL1       -0.1686
     20 C         142.4042  144.4652  162.0465 C.3     1  UNL1        0.1714
     21 C         143.2111  143.3797  161.3978 C.2     1  UNL1        0.1957
     22 O         143.4233  143.3884  159.9129 O.2     1  UNL1       -0.2894
     23 C         143.8057  142.2856  162.2340 C.ar    1  UNL1        0.0640
     24 C         145.0986  142.5143  162.9593 C.ar    1  UNL1        0.0075
     25 C         145.6932  141.4202  163.7956 C.ar    1  UNL1        0.0299
     26 C         144.9949  140.0973  163.9065 C.ar    1  UNL1        0.1424
     27 F         145.5895  139.0031  164.7428 F       1  UNL1       -0.2041
     28 C         143.7020  139.8685  163.1812 C.ar    1  UNL1        0.0593
     29 C         143.1074  140.9626  162.3450 C.ar    1  UNL1        0.1451
     30 F         141.8145  140.7338  161.6197 F       1  UNL1       -0.2040
@<TRIPOS>BOND
     1     1     2    1
     2     2    10    1
     3    10    11   ar
     4    11    12   ar
     5    12    13   ar
     6    13    16    1
     7    16    17    1
     8    16    18    2
     9    16    19    2
    10    13    14   ar
    11    14    15   ar
    12     2     3    1
    13     3     4   am
    14     4     5    2
    15     4     6   am
    16     6    20    1
    17    20    21    1
    18    21    22    2
    19    21    23    1
    20    23    24   ar
    21    24    25   ar
    22    25    26   ar
    23    26    27    1
    24    26    28   ar
    25    28    29   ar
    26    29    30    1
    27     6     7   am
    28     7     8    2
    29     7     2    1
    30    15    10   ar
    31    29    23   ar
    32     3     9    1
