@<TRIPOS>MOLECULE
*****
 32 36 0 0 0
SMALL
GASTEIGER

@<TRIPOS>ATOM
      1 O         140.7393  136.8800  163.1680 O.2     1  UNL1       -0.2668
      2 C         140.4899  138.3344  163.4371 C.2     1  UNL1        0.2806
      3 N         140.6550  139.3399  162.3364 N.am    1  UNL1       -0.2999
      4 H         140.4913  140.2945  162.5130 H       1  UNL1        0.1498
      5 C         140.0752  138.7834  164.8070 C.ar    1  UNL1        0.2014
      6 C         138.8164  138.2483  165.4226 C.ar    1  UNL1        0.0843
      7 C         138.4017  138.6972  166.7924 C.ar    1  UNL1        0.2018
      8 O         137.1429  138.1620  167.4080 O.2     1  UNL1       -0.2864
      9 C         139.2459  139.6813  167.5468 C.ar    1  UNL1        0.0737
     10 C         138.8313  140.1302  168.9166 C.ar    1  UNL1        0.0085
     11 C         139.6755  141.1142  169.6709 C.ar    1  UNL1        0.0299
     12 C         140.9343  141.6493  169.0553 C.ar    1  UNL1        0.1432
     13 F         141.7785  142.6334  169.8096 F       1  UNL1       -0.2041
     14 C         141.3490  141.2004  167.6855 C.ar    1  UNL1        0.0672
     15 C         140.5048  140.2164  166.9312 C.ar    1  UNL1        0.1508
     16 O         140.9194  139.7674  165.5613 O.2     1  UNL1       -0.4486
     17 C         141.0696  138.8910  160.9665 C.3     1  UNL1        0.0747
     18 C         142.5062  138.5612  160.6881 C.3     1  UNL1        0.0369
     19 C         142.9208  138.1123  159.3183 C.3     1  UNL1        0.0741
     20 N         141.8988  137.9932  158.2267 N.3     1  UNL1       -0.2688
     21 C         140.4623  138.3231  158.5051 C.3     1  UNL1        0.0741
     22 C         140.0477  138.7720  159.8750 C.3     1  UNL1        0.0369
     23 C         142.3135  137.5444  156.8569 C.3     1  UNL1        0.0992
     24 C         142.2268  136.0938  156.4847 C.ar    1  UNL1       -0.0029
     25 C         141.2863  135.6519  155.4031 C.ar    1  UNL1        0.0004
     26 C         141.1996  134.2014  155.0309 C.ar    1  UNL1        0.0399
     27 C         142.0536  133.1928  155.7404 C.ar    1  UNL1        0.1764
     28 C         142.9942  133.6347  156.8220 C.ar    1  UNL1        0.1762
     29 C         143.0808  135.0852  157.1942 C.ar    1  UNL1        0.0373
     30 O         143.7063  132.4210  157.3416 O.3     1  UNL1       -0.4346
     31 C         143.2057  131.2289  156.5810 C.3     1  UNL1        0.4294
     32 O         142.1843  131.7060  155.5914 O.3     1  UNL1       -0.4346
@<TRIPOS>BOND
     1     1     2    2
     2     2     3   am
     3     3    17    1
     4    17    18    1
     5    18    19    1
     6    19    20    1
     7    20    23    1
     8    23    24    1
     9    24    25   ar
    10    25    26   ar
    11    26    27   ar
    12    27    28   ar
    13    28    29   ar
    14    28    30    1
    15    30    31    1
    16    31    32    1
    17    20    21    1
    18    21    22    1
    19     2     5    1
    20     5     6   ar
    21     6     7   ar
    22     7     8    2
    23     7     9   ar
    24     9    10   ar
    25    10    11   ar
    26    11    12   ar
    27    12    13    1
    28    12    14   ar
    29    14    15   ar
    30    15    16   ar
    31    22    17    1
    32    16     5   ar
    33    29    24   ar
    34    15     9   ar
    35    32    27    1
    36     3     4    1
@<TRIPOS>MOLECULE
*****
 32 36 0 0 0
SMALL
GASTEIGER

@<TRIPOS>ATOM
      1 O         143.6631  139.1817  158.5257 O.2     1  UNL1       -0.2668
      2 C         142.7733  138.0090  158.8134 C.2     1  UNL1        0.2806
      3 N         142.2502  137.7872  160.2017 N.am    1  UNL1       -0.2999
      4 H         141.6662  137.0175  160.3905 H       1  UNL1        0.1498
      5 C         142.4066  137.0579  157.7129 C.ar    1  UNL1        0.2014
      6 C         141.2356  137.3553  156.8239 C.ar    1  UNL1        0.0843
      7 C         140.8688  136.4043  155.7235 C.ar    1  UNL1        0.2018
      8 O         139.6978  136.7017  154.8344 O.2     1  UNL1       -0.2864
      9 C         141.6731  135.1559  155.5120 C.ar    1  UNL1        0.0737
     10 C         141.3063  134.2049  154.4115 C.ar    1  UNL1        0.0085
     11 C         142.1105  132.9565  154.2001 C.ar    1  UNL1        0.0299
     12 C         143.2815  132.6591  155.0891 C.ar    1  UNL1        0.1432
     13 F         144.0858  131.4107  154.8776 F       1  UNL1       -0.2041
     14 C         143.6483  133.6101  156.1896 C.ar    1  UNL1        0.0672
     15 C         142.8440  134.8585  156.4010 C.ar    1  UNL1        0.1508
     16 O         143.2108  135.8096  157.5015 O.2     1  UNL1       -0.4486
     17 C         142.6169  138.7382  161.3022 C.3     1  UNL1        0.0747
     18 C         143.9059  138.5606  162.0484 C.3     1  UNL1        0.0369
     19 C         144.2726  139.5116  163.1489 C.3     1  UNL1        0.0741
     20 N         143.3503  140.6403  163.5032 N.3     1  UNL1       -0.2688
     21 C         142.0612  140.8179  162.7569 C.3     1  UNL1        0.0741
     22 C         141.6946  139.8668  161.6564 C.3     1  UNL1        0.0369
     23 C         143.7170  141.5913  164.6036 C.3     1  UNL1        0.0992
     24 C         143.2496  141.3325  166.0053 C.ar    1  UNL1       -0.0029
     25 C         142.7331  139.9765  166.3854 C.ar    1  UNL1        0.0004
     26 C         142.2657  139.7178  167.7870 C.ar    1  UNL1        0.0399
     27 C         142.3148  140.8150  168.8086 C.ar    1  UNL1        0.1764
     28 C         142.8312  142.1710  168.4285 C.ar    1  UNL1        0.1762
     29 C         143.2986  142.4298  167.0268 C.ar    1  UNL1        0.0373
     30 O         142.7611  143.0505  169.6416 O.3     1  UNL1       -0.4346
     31 C         142.2013  142.2380  170.7714 C.3     1  UNL1        0.4294
     32 O         141.9255  140.8564  170.2565 O.3     1  UNL1       -0.4346
@<TRIPOS>BOND
     1     1     2    2
     2     2     3   am
     3     3    17    1
     4    17    18    1
     5    18    19    1
     6    19    20    1
     7    20    23    1
     8    23    24    1
     9    24    25   ar
    10    25    26   ar
    11    26    27   ar
    12    27    28   ar
    13    28    29   ar
    14    28    30    1
    15    30    31    1
    16    31    32    1
    17    20    21    1
    18    21    22    1
    19     2     5    1
    20     5     6   ar
    21     6     7   ar
    22     7     8    2
    23     7     9   ar
    24     9    10   ar
    25    10    11   ar
    26    11    12   ar
    27    12    13    1
    28    12    14   ar
    29    14    15   ar
    30    15    16   ar
    31    22    17    1
    32    16     5   ar
    33    29    24   ar
    34    15     9   ar
    35    32    27    1
    36     3     4    1
@<TRIPOS>MOLECULE
*****
 32 36 0 0 0
SMALL
GASTEIGER

@<TRIPOS>ATOM
      1 O         141.7614  139.1137  160.8596 O.2     1  UNL1       -0.2668
      2 C         140.6948  138.4902  160.0090 C.2     1  UNL1        0.2806
      3 N         139.3612  138.1520  160.6065 N.am    1  UNL1       -0.2999
      4 H         138.6612  137.7428  160.0481 H       1  UNL1        0.1498
      5 C         140.9619  138.2048  158.5607 C.ar    1  UNL1        0.2014
      6 C         142.3657  138.2493  158.0340 C.ar    1  UNL1        0.0843
      7 C         142.6328  137.9639  156.5859 C.ar    1  UNL1        0.2018
      8 O         144.0366  138.0084  156.0592 O.2     1  UNL1       -0.2864
      9 C         141.4961  137.6340  155.6644 C.ar    1  UNL1        0.0737
     10 C         141.7632  137.3486  154.2162 C.ar    1  UNL1        0.0085
     11 C         140.6265  137.0187  153.2948 C.ar    1  UNL1        0.0299
     12 C         139.2227  136.9742  153.8215 C.ar    1  UNL1        0.1432
     13 F         138.0860  136.6443  152.9000 F       1  UNL1       -0.2041
     14 C         138.9556  137.2596  155.2696 C.ar    1  UNL1        0.0672
     15 C         140.0923  137.5895  156.1911 C.ar    1  UNL1        0.1508
     16 O         139.8252  137.8749  157.6393 O.2     1  UNL1       -0.4486
     17 C         139.0941  138.4374  162.0546 C.3     1  UNL1        0.0747
     18 C         139.5548  137.4725  163.1066 C.3     1  UNL1        0.0369
     19 C         139.2877  137.7579  164.5547 C.3     1  UNL1        0.0741
     20 N         138.5598  139.0082  164.9510 N.3     1  UNL1       -0.2688
     21 C         138.0991  139.9731  163.8990 C.3     1  UNL1        0.0741
     22 C         138.3662  139.6877  162.4508 C.3     1  UNL1        0.0369
     23 C         138.2927  139.2936  166.3991 C.3     1  UNL1        0.0992
     24 C         139.3689  139.8905  167.2568 C.ar    1  UNL1       -0.0029
     25 C         140.6618  140.3330  166.6384 C.ar    1  UNL1        0.0004
     26 C         141.7379  140.9300  167.4961 C.ar    1  UNL1        0.0399
     27 C         141.5211  141.0844  168.9722 C.ar    1  UNL1        0.1764
     28 C         140.2282  140.6418  169.5907 C.ar    1  UNL1        0.1762
     29 C         139.1521  140.0449  168.7330 C.ar    1  UNL1        0.0373
     30 O         140.3005  140.9176  171.0634 O.3     1  UNL1       -0.4346
     31 C         141.6381  141.5306  171.3551 C.3     1  UNL1        0.4294
     32 O         142.3925  141.6336  170.0627 O.3     1  UNL1       -0.4346
@<TRIPOS>BOND
     1     1     2    2
     2     2     3   am
     3     3    17    1
     4    17    18    1
     5    18    19    1
     6    19    20    1
     7    20    23    1
     8    23    24    1
     9    24    25   ar
    10    25    26   ar
    11    26    27   ar
    12    27    28   ar
    13    28    29   ar
    14    28    30    1
    15    30    31    1
    16    31    32    1
    17    20    21    1
    18    21    22    1
    19     2     5    1
    20     5     6   ar
    21     6     7   ar
    22     7     8    2
    23     7     9   ar
    24     9    10   ar
    25    10    11   ar
    26    11    12   ar
    27    12    13    1
    28    12    14   ar
    29    14    15   ar
    30    15    16   ar
    31    22    17    1
    32    16     5   ar
    33    29    24   ar
    34    15     9   ar
    35    32    27    1
    36     3     4    1
@<TRIPOS>MOLECULE
*****
 32 36 0 0 0
SMALL
GASTEIGER

@<TRIPOS>ATOM
      1 O         141.6247  142.7213  159.6805 O.2     1  UNL1       -0.2668
      2 C         141.7236  144.2117  159.5435 C.2     1  UNL1        0.2806
      3 N         142.1245  145.0482  160.7223 N.am    1  UNL1       -0.2999
      4 H         142.1894  146.0264  160.6324 H       1  UNL1        0.1498
      5 C         141.4217  144.8657  158.2277 C.ar    1  UNL1        0.2014
      6 C         142.0734  144.3634  156.9735 C.ar    1  UNL1        0.0843
      7 C         141.7716  145.0173  155.6578 C.ar    1  UNL1        0.2018
      8 O         142.4232  144.5150  154.4036 O.2     1  UNL1       -0.2864
      9 C         140.8180  146.1736  155.5962 C.ar    1  UNL1        0.0737
     10 C         140.5161  146.8276  154.2805 C.ar    1  UNL1        0.0085
     11 C         139.5626  147.9838  154.2189 C.ar    1  UNL1        0.0299
     12 C         138.9109  148.4861  155.4731 C.ar    1  UNL1        0.1432
     13 F         137.9573  149.6424  155.4115 F       1  UNL1       -0.2041
     14 C         139.2128  147.8322  156.7889 C.ar    1  UNL1        0.0672
     15 C         140.1663  146.6759  156.8504 C.ar    1  UNL1        0.1508
     16 O         140.4682  146.0219  158.1662 O.2     1  UNL1       -0.4486
     17 C         142.4264  144.3943  162.0381 C.3     1  UNL1        0.0747
     18 C         141.3094  144.0493  162.9779 C.3     1  UNL1        0.0369
     19 C         141.6113  143.3954  164.2937 C.3     1  UNL1        0.0741
     20 N         143.0302  143.0864  164.6696 N.3     1  UNL1       -0.2688
     21 C         144.1472  143.4313  163.7297 C.3     1  UNL1        0.0741
     22 C         143.8452  144.0853  162.4139 C.3     1  UNL1        0.0369
     23 C         143.3321  142.4325  165.9853 C.3     1  UNL1        0.0992
     24 C         142.2640  141.6605  166.7018 C.ar    1  UNL1       -0.0029
     25 C         141.8537  140.3071  166.2019 C.ar    1  UNL1        0.0004
     26 C         140.7856  139.5352  166.9183 C.ar    1  UNL1        0.0399
     27 C         140.1279  140.1166  168.1346 C.ar    1  UNL1        0.1764
     28 C         140.5383  141.4699  168.6345 C.ar    1  UNL1        0.1762
     29 C         141.6064  142.2419  167.9180 C.ar    1  UNL1        0.0373
     30 O         139.7175  141.7836  169.8502 O.3     1  UNL1       -0.4346
     31 C         138.7998  140.6240  170.1017 C.3     1  UNL1        0.4294
     32 O         139.0535  139.5937  169.0414 O.3     1  UNL1       -0.4346
@<TRIPOS>BOND
     1     1     2    2
     2     2     3   am
     3     3    17    1
     4    17    18    1
     5    18    19    1
     6    19    20    1
     7    20    23    1
     8    23    24    1
     9    24    25   ar
    10    25    26   ar
    11    26    27   ar
    12    27    28   ar
    13    28    29   ar
    14    28    30    1
    15    30    31    1
    16    31    32    1
    17    20    21    1
    18    21    22    1
    19     2     5    1
    20     5     6   ar
    21     6     7   ar
    22     7     8    2
    23     7     9   ar
    24     9    10   ar
    25    10    11   ar
    26    11    12   ar
    27    12    13    1
    28    12    14   ar
    29    14    15   ar
    30    15    16   ar
    31    22    17    1
    32    16     5   ar
    33    29    24   ar
    34    15     9   ar
    35    32    27    1
    36     3     4    1
@<TRIPOS>MOLECULE
*****
 32 36 0 0 0
SMALL
GASTEIGER

@<TRIPOS>ATOM
      1 O         142.2272  139.1914  157.8350 O.2     1  UNL1       -0.2668
      2 C         142.4996  137.7789  158.2601 C.2     1  UNL1        0.2806
      3 N         142.8143  137.4750  159.6948 N.am    1  UNL1       -0.2999
      4 H         142.9931  136.5479  159.9739 H       1  UNL1        0.1498
      5 C         142.4572  136.6704  157.2504 C.ar    1  UNL1        0.2014
      6 C         141.5359  136.7654  156.0705 C.ar    1  UNL1        0.0843
      7 C         141.4935  135.6569  155.0609 C.ar    1  UNL1        0.2018
      8 O         140.5722  135.7520  153.8810 O.2     1  UNL1       -0.2864
      9 C         142.3724  134.4533  155.2311 C.ar    1  UNL1        0.0737
     10 C         142.3300  133.3448  154.2215 C.ar    1  UNL1        0.0085
     11 C         143.2089  132.1413  154.3917 C.ar    1  UNL1        0.0299
     12 C         144.1302  132.0463  155.5716 C.ar    1  UNL1        0.1432
     13 F         145.0091  130.8427  155.7419 F       1  UNL1       -0.2041
     14 C         144.1726  133.1547  156.5813 C.ar    1  UNL1        0.0672
     15 C         143.2937  134.3583  156.4110 C.ar    1  UNL1        0.1508
     16 O         143.3361  135.4668  157.4207 O.2     1  UNL1       -0.4486
     17 C         142.8567  138.5834  160.7045 C.3     1  UNL1        0.0747
     18 C         144.1760  139.0881  161.2093 C.3     1  UNL1        0.0369
     19 C         144.2184  140.1966  162.2189 C.3     1  UNL1        0.0741
     20 N         142.9415  140.8005  162.7238 N.3     1  UNL1       -0.2688
     21 C         141.6222  140.2958  162.2190 C.3     1  UNL1        0.0741
     22 C         141.5799  139.1873  161.2093 C.3     1  UNL1        0.0369
     23 C         142.9839  141.9089  163.7335 C.3     1  UNL1        0.0992
     24 C         142.5599  141.6508  165.1490 C.ar    1  UNL1       -0.0029
     25 C         141.6204  142.5977  165.8350 C.ar    1  UNL1        0.0004
     26 C         141.1964  142.3395  167.2505 C.ar    1  UNL1        0.0399
     27 C         141.7119  141.1345  167.9799 C.ar    1  UNL1        0.1764
     28 C         142.6514  140.1876  167.2939 C.ar    1  UNL1        0.1762
     29 C         143.0754  140.4457  165.8784 C.ar    1  UNL1        0.0373
     30 O         142.9920  139.0915  168.2596 O.3     1  UNL1       -0.4346
     31 C         142.2629  139.3610  169.5425 C.3     1  UNL1        0.4294
     32 O         141.4718  140.6236  169.3697 O.3     1  UNL1       -0.4346
@<TRIPOS>BOND
     1     1     2    2
     2     2     3   am
     3     3    17    1
     4    17    18    1
     5    18    19    1
     6    19    20    1
     7    20    23    1
     8    23    24    1
     9    24    25   ar
    10    25    26   ar
    11    26    27   ar
    12    27    28   ar
    13    28    29   ar
    14    28    30    1
    15    30    31    1
    16    31    32    1
    17    20    21    1
    18    21    22    1
    19     2     5    1
    20     5     6   ar
    21     6     7   ar
    22     7     8    2
    23     7     9   ar
    24     9    10   ar
    25    10    11   ar
    26    11    12   ar
    27    12    13    1
    28    12    14   ar
    29    14    15   ar
    30    15    16   ar
    31    22    17    1
    32    16     5   ar
    33    29    24   ar
    34    15     9   ar
    35    32    27    1
    36     3     4    1
@<TRIPOS>MOLECULE
*****
 32 36 0 0 0
SMALL
GASTEIGER

@<TRIPOS>ATOM
      1 O         141.7645  141.9798  162.8882 O.2     1  UNL1       -0.2668
      2 C         141.8769  140.8098  163.8200 C.2     1  UNL1        0.2806
      3 N         142.1158  139.4343  163.2714 N.am    1  UNL1       -0.2999
      4 H         142.1896  138.6664  163.8830 H       1  UNL1        0.1498
      5 C         141.7505  141.0153  165.3005 C.ar    1  UNL1        0.2014
      6 C         142.8153  141.7621  166.0477 C.ar    1  UNL1        0.0843
      7 C         142.6889  141.9676  167.5282 C.ar    1  UNL1        0.2018
      8 O         143.7537  142.7144  168.2754 O.2     1  UNL1       -0.2864
      9 C         141.4975  141.4261  168.2615 C.ar    1  UNL1        0.0737
     10 C         141.3711  141.6316  169.7419 C.ar    1  UNL1        0.0085
     11 C         140.1798  141.0902  170.4752 C.ar    1  UNL1        0.0299
     12 C         139.1150  140.3433  169.7280 C.ar    1  UNL1        0.1432
     13 F         137.9237  139.8019  170.4613 F       1  UNL1       -0.2041
     14 C         139.2414  140.1379  168.2475 C.ar    1  UNL1        0.0672
     15 C         140.4327  140.6793  167.5143 C.ar    1  UNL1        0.1508
     16 O         140.5592  140.4739  166.0338 O.2     1  UNL1       -0.4486
     17 C         142.2423  139.2289  161.7910 C.3     1  UNL1        0.0747
     18 C         141.0554  138.7780  160.9922 C.3     1  UNL1        0.0369
     19 C         141.1819  138.5725  159.5118 C.3     1  UNL1        0.0741
     20 N         142.4953  138.8179  158.8300 N.3     1  UNL1       -0.2688
     21 C         143.6822  139.2688  159.6288 C.3     1  UNL1        0.0741
     22 C         143.5557  139.4742  161.1093 C.3     1  UNL1        0.0369
     23 C         142.6218  138.6124  157.3496 C.3     1  UNL1        0.0992
     24 C         142.2833  137.2818  156.7454 C.ar    1  UNL1       -0.0029
     25 C         141.2686  137.1945  155.6443 C.ar    1  UNL1        0.0004
     26 C         140.9302  135.8639  155.0401 C.ar    1  UNL1        0.0399
     27 C         141.6064  134.6207  155.5371 C.ar    1  UNL1        0.1764
     28 C         142.6211  134.7081  156.6383 C.ar    1  UNL1        0.1762
     29 C         142.9596  136.0387  157.2425 C.ar    1  UNL1        0.0373
     30 O         143.1203  133.3218  156.9198 O.3     1  UNL1       -0.4346
     31 C         142.4140  132.3777  155.9926 C.3     1  UNL1        0.4294
     32 O         141.4784  133.1804  155.1381 O.3     1  UNL1       -0.4346
@<TRIPOS>BOND
     1     1     2    2
     2     2     3   am
     3     3    17    1
     4    17    18    1
     5    18    19    1
     6    19    20    1
     7    20    23    1
     8    23    24    1
     9    24    25   ar
    10    25    26   ar
    11    26    27   ar
    12    27    28   ar
    13    28    29   ar
    14    28    30    1
    15    30    31    1
    16    31    32    1
    17    20    21    1
    18    21    22    1
    19     2     5    1
    20     5     6   ar
    21     6     7   ar
    22     7     8    2
    23     7     9   ar
    24     9    10   ar
    25    10    11   ar
    26    11    12   ar
    27    12    13    1
    28    12    14   ar
    29    14    15   ar
    30    15    16   ar
    31    22    17    1
    32    16     5   ar
    33    29    24   ar
    34    15     9   ar
    35    32    27    1
    36     3     4    1
@<TRIPOS>MOLECULE
*****
 32 36 0 0 0
SMALL
GASTEIGER

@<TRIPOS>ATOM
      1 O         143.4094  140.8859  163.6448 O.2     1  UNL1       -0.2668
      2 C         142.3649  140.1171  164.3983 C.2     1  UNL1        0.2806
      3 N         141.4726  139.1545  163.6722 N.am    1  UNL1       -0.2999
      4 H         140.7870  138.6500  164.1668 H       1  UNL1        0.1498
      5 C         142.2126  140.3109  165.8780 C.ar    1  UNL1        0.2014
      6 C         142.7464  139.2804  166.8282 C.ar    1  UNL1        0.0843
      7 C         142.5941  139.4741  168.3078 C.ar    1  UNL1        0.2018
      8 O         143.1279  138.4435  169.2580 O.2     1  UNL1       -0.2864
      9 C         141.9081  140.6985  168.8372 C.ar    1  UNL1        0.0737
     10 C         141.7558  140.8923  170.3168 C.ar    1  UNL1        0.0085
     11 C         141.0698  142.1166  170.8462 C.ar    1  UNL1        0.0299
     12 C         140.5360  143.1472  169.8959 C.ar    1  UNL1        0.1432
     13 F         139.8499  144.3716  170.4254 F       1  UNL1       -0.2041
     14 C         140.6882  142.9535  168.4163 C.ar    1  UNL1        0.0672
     15 C         141.3743  141.7291  167.8870 C.ar    1  UNL1        0.1508
     16 O         141.5265  141.5353  166.4073 O.2     1  UNL1       -0.4486
     17 C         141.6248  138.9607  162.1927 C.3     1  UNL1        0.0747
     18 C         142.6309  137.9817  161.6641 C.3     1  UNL1        0.0369
     19 C         142.7831  137.7879  160.1845 C.3     1  UNL1        0.0741
     20 N         141.9292  138.5731  159.2334 N.3     1  UNL1       -0.2688
     21 C         140.9232  139.5520  159.7620 C.3     1  UNL1        0.0741
     22 C         140.7709  139.7459  161.2417 C.3     1  UNL1        0.0369
     23 C         142.0815  138.3792  157.7538 C.3     1  UNL1        0.0992
     24 C         143.2454  138.9921  157.0329 C.ar    1  UNL1       -0.0029
     25 C         143.7439  138.3805  155.7573 C.ar    1  UNL1        0.0004
     26 C         144.9078  138.9933  155.0364 C.ar    1  UNL1        0.0399
     27 C         145.5732  140.2178  155.5912 C.ar    1  UNL1        0.1764
     28 C         145.0747  140.8295  156.8668 C.ar    1  UNL1        0.1762
     29 C         143.9108  140.2166  157.5877 C.ar    1  UNL1        0.0373
     30 O         145.9251  142.0274  157.1699 O.3     1  UNL1       -0.4346
     31 C         146.9492  142.1561  156.0815 C.3     1  UNL1        0.4294
     32 O         146.7317  141.0377  155.1058 O.3     1  UNL1       -0.4346
@<TRIPOS>BOND
     1     1     2    2
     2     2     3   am
     3     3    17    1
     4    17    18    1
     5    18    19    1
     6    19    20    1
     7    20    23    1
     8    23    24    1
     9    24    25   ar
    10    25    26   ar
    11    26    27   ar
    12    27    28   ar
    13    28    29   ar
    14    28    30    1
    15    30    31    1
    16    31    32    1
    17    20    21    1
    18    21    22    1
    19     2     5    1
    20     5     6   ar
    21     6     7   ar
    22     7     8    2
    23     7     9   ar
    24     9    10   ar
    25    10    11   ar
    26    11    12   ar
    27    12    13    1
    28    12    14   ar
    29    14    15   ar
    30    15    16   ar
    31    22    17    1
    32    16     5   ar
    33    29    24   ar
    34    15     9   ar
    35    32    27    1
    36     3     4    1
@<TRIPOS>MOLECULE
*****
 32 36 0 0 0
SMALL
GASTEIGER

@<TRIPOS>ATOM
      1 O         141.3971  140.8041  163.1713 O.2     1  UNL1       -0.2668
      2 C         140.7590  139.6239  163.8420 C.2     1  UNL1        0.2806
      3 N         140.6000  138.3325  163.0956 N.am    1  UNL1       -0.2999
      4 H         140.1812  137.5579  163.5359 H       1  UNL1        0.1498
      5 C         140.2800  139.7350  165.2591 C.ar    1  UNL1        0.2014
      6 C         139.0414  139.0076  165.6913 C.ar    1  UNL1        0.0843
      7 C         138.5623  139.1187  167.1084 C.ar    1  UNL1        0.2018
      8 O         137.3237  138.3913  167.5405 O.2     1  UNL1       -0.2864
      9 C         139.3218  139.9572  168.0933 C.ar    1  UNL1        0.0737
     10 C         138.8427  140.0683  169.5104 C.ar    1  UNL1        0.0085
     11 C         139.6022  140.9068  170.4953 C.ar    1  UNL1        0.0299
     12 C         140.8408  141.6342  170.0631 C.ar    1  UNL1        0.1432
     13 F         141.6003  142.4728  171.0481 F       1  UNL1       -0.2041
     14 C         141.3199  141.5231  168.6460 C.ar    1  UNL1        0.0672
     15 C         140.5604  140.6846  167.6612 C.ar    1  UNL1        0.1508
     16 O         141.0395  140.5735  166.2440 O.2     1  UNL1       -0.4486
     17 C         141.0790  138.2213  161.6786 C.3     1  UNL1        0.0747
     18 C         142.5011  137.8371  161.3955 C.3     1  UNL1        0.0369
     19 C         142.9801  137.7259  159.9785 C.3     1  UNL1        0.0741
     20 N         142.0371  137.9990  158.8443 N.3     1  UNL1       -0.2688
     21 C         140.6150  138.3833  159.1274 C.3     1  UNL1        0.0741
     22 C         140.1360  138.4945  160.5445 C.3     1  UNL1        0.0369
     23 C         142.5161  137.8878  157.4273 C.3     1  UNL1        0.0992
     24 C         142.4383  136.5726  156.7103 C.ar    1  UNL1       -0.0029
     25 C         143.1931  135.3870  157.2342 C.ar    1  UNL1        0.0004
     26 C         143.1153  134.0717  156.5172 C.ar    1  UNL1        0.0399
     27 C         142.2828  133.9421  155.2763 C.ar    1  UNL1        0.1764
     28 C         141.5280  135.1278  154.7523 C.ar    1  UNL1        0.1762
     29 C         141.6058  136.4430  155.4693 C.ar    1  UNL1        0.0373
     30 O         140.7949  134.7009  153.5152 O.3     1  UNL1       -0.4346
     31 C         141.0966  133.2513  153.2746 C.3     1  UNL1        0.4294
     32 O         142.0161  132.7824  154.3630 O.3     1  UNL1       -0.4346
@<TRIPOS>BOND
     1     1     2    2
     2     2     3   am
     3     3    17    1
     4    17    18    1
     5    18    19    1
     6    19    20    1
     7    20    23    1
     8    23    24    1
     9    24    25   ar
    10    25    26   ar
    11    26    27   ar
    12    27    28   ar
    13    28    29   ar
    14    28    30    1
    15    30    31    1
    16    31    32    1
    17    20    21    1
    18    21    22    1
    19     2     5    1
    20     5     6   ar
    21     6     7   ar
    22     7     8    2
    23     7     9   ar
    24     9    10   ar
    25    10    11   ar
    26    11    12   ar
    27    12    13    1
    28    12    14   ar
    29    14    15   ar
    30    15    16   ar
    31    22    17    1
    32    16     5   ar
    33    29    24   ar
    34    15     9   ar
    35    32    27    1
    36     3     4    1
@<TRIPOS>MOLECULE
*****
 32 36 0 0 0
SMALL
GASTEIGER

@<TRIPOS>ATOM
      1 O         141.4558  144.0929  160.5901 O.2     1  UNL1       -0.2668
      2 C         140.2251  144.1691  159.7360 C.2     1  UNL1        0.2806
      3 N         138.9479  143.5357  160.2027 N.am    1  UNL1       -0.2999
      4 H         138.1402  143.5857  159.6421 H       1  UNL1        0.1498
      5 C         140.2714  144.8787  158.4153 C.ar    1  UNL1        0.2014
      6 C         141.0289  144.2790  157.2679 C.ar    1  UNL1        0.0843
      7 C         141.0753  144.9885  155.9471 C.ar    1  UNL1        0.2018
      8 O         141.8329  144.3888  154.7998 O.2     1  UNL1       -0.2864
      9 C         140.3641  146.2978  155.7737 C.ar    1  UNL1        0.0737
     10 C         140.4105  147.0074  154.4530 C.ar    1  UNL1        0.0085
     11 C         139.6993  148.3166  154.2797 C.ar    1  UNL1        0.0299
     12 C         138.9417  148.9163  155.4270 C.ar    1  UNL1        0.1432
     13 F         138.2305  150.2256  155.2536 F       1  UNL1       -0.2041
     14 C         138.8954  148.2068  156.7478 C.ar    1  UNL1        0.0672
     15 C         139.6066  146.8975  156.9211 C.ar    1  UNL1        0.1508
     16 O         139.5602  146.1879  158.2419 O.2     1  UNL1       -0.4486
     17 C         138.9016  142.8262  161.5234 C.3     1  UNL1        0.0747
     18 C         139.5979  141.5082  161.6916 C.3     1  UNL1        0.0369
     19 C         139.5515  140.7987  163.0123 C.3     1  UNL1        0.0741
     20 N         138.8088  141.4070  164.1649 N.3     1  UNL1       -0.2688
     21 C         138.1125  142.7249  163.9967 C.3     1  UNL1        0.0741
     22 C         138.1589  143.4345  162.6759 C.3     1  UNL1        0.0369
     23 C         138.7624  140.6974  165.4856 C.3     1  UNL1        0.0992
     24 C         139.9144  140.8119  166.4394 C.ar    1  UNL1       -0.0029
     25 C         141.0555  141.7349  166.1298 C.ar    1  UNL1        0.0004
     26 C         142.2076  141.8494  167.0836 C.ar    1  UNL1        0.0399
     27 C         142.2185  141.0409  168.3470 C.ar    1  UNL1        0.1764
     28 C         141.0774  140.1179  168.6565 C.ar    1  UNL1        0.1762
     29 C         139.9254  140.0034  167.7027 C.ar    1  UNL1        0.0373
     30 O         141.3633  139.4515  169.9697 O.3     1  UNL1       -0.4346
     31 C         142.6812  139.9627  170.4716 C.3     1  UNL1        0.4294
     32 O         143.2097  140.9450  169.4687 O.3     1  UNL1       -0.4346
@<TRIPOS>BOND
     1     1     2    2
     2     2     3   am
     3     3    17    1
     4    17    18    1
     5    18    19    1
     6    19    20    1
     7    20    23    1
     8    23    24    1
     9    24    25   ar
    10    25    26   ar
    11    26    27   ar
    12    27    28   ar
    13    28    29   ar
    14    28    30    1
    15    30    31    1
    16    31    32    1
    17    20    21    1
    18    21    22    1
    19     2     5    1
    20     5     6   ar
    21     6     7   ar
    22     7     8    2
    23     7     9   ar
    24     9    10   ar
    25    10    11   ar
    26    11    12   ar
    27    12    13    1
    28    12    14   ar
    29    14    15   ar
    30    15    16   ar
    31    22    17    1
    32    16     5   ar
    33    29    24   ar
    34    15     9   ar
    35    32    27    1
    36     3     4    1
