@<TRIPOS>MOLECULE
*****
 28 31 0 0 0
SMALL
GASTEIGER

@<TRIPOS>ATOM
      1 C         139.5338  141.7705  164.2172 C.ar    1  UNL1        0.0681
      2 C         138.4570  142.8072  164.0907 C.ar    1  UNL1        0.0208
      3 C         137.9754  143.2266  162.7335 C.ar    1  UNL1        0.0384
      4 C         138.5706  142.6094  161.5027 C.ar    1  UNL1        0.1386
      5 C         139.6474  141.5729  161.6291 C.ar    1  UNL1        0.0384
      6 C         140.1290  141.1534  162.9864 C.ar    1  UNL1        0.0208
      7 C         144.5078  142.5817  170.1630 C.3     1  UNL1        0.0310
      8 C         143.3313  141.8919  169.5383 C.ar    1  UNL1       -0.0216
      9 C         142.6365  140.7826  170.2709 C.ar    1  UNL1       -0.0027
     10 C         141.4601  140.0928  169.6462 C.ar    1  UNL1        0.0190
     11 C         140.9785  140.5122  168.2890 C.ar    1  UNL1        0.0872
     12 N         139.8021  139.8224  167.6644 N.ar    1  UNL1       -0.2318
     13 C         139.3205  140.2418  166.3071 C.ar    1  UNL1        0.1268
     14 C         138.1441  139.5520  165.6825 C.3     1  UNL1        0.0723
     15 N         140.0154  141.3511  165.5745 N.ar    1  UNL1       -0.2626
     16 C         141.1918  142.0409  166.1991 C.ar    1  UNL1        0.2669
     17 O         141.8866  143.1502  165.4665 O.2     1  UNL1       -0.2665
     18 C         141.6734  141.6215  167.5564 C.ar    1  UNL1        0.0739
     19 C         142.8498  142.3113  168.1811 C.ar    1  UNL1        0.0020
     20 O         138.0890  143.0289  160.1455 O.3     1  UNL1       -0.4754
     21 C         138.9243  142.7447  158.9324 C.3     1  UNL1        0.2068
     22 C         139.8739  143.7843  158.4153 C.3     1  UNL1        0.0646
     23 C         140.0766  145.0602  159.1774 C.3     1  UNL1        0.0759
     24 N         140.7252  145.0313  160.5297 N.3     1  UNL1       -0.2726
     25 C         140.2721  145.7906  161.7413 C.3     1  UNL1        0.0721
     26 C         141.2076  145.4665  162.8682 C.3     1  UNL1        0.0188
     27 C         142.2389  144.5069  162.3529 C.3     1  UNL1        0.0188
     28 C         141.9408  144.2379  160.9077 C.3     1  UNL1        0.0721
@<TRIPOS>BOND
     1     7     8    1
     2     8     9   ar
     3     9    10   ar
     4    10    11   ar
     5    11    12   ar
     6    12    13   ar
     7    13    14    1
     8    13    15   ar
     9    15     1    1
    10     1     2   ar
    11     2     3   ar
    12     3     4   ar
    13     4    20    1
    14    20    21    1
    15    21    22    1
    16    22    23    1
    17    23    24    1
    18    24    25    1
    19    25    26    1
    20    26    27    1
    21    27    28    1
    22     4     5   ar
    23     5     6   ar
    24    15    16   ar
    25    16    17    2
    26    16    18   ar
    27    18    19   ar
    28    19     8   ar
    29    18    11   ar
    30     6     1   ar
    31    28    24    1
@<TRIPOS>MOLECULE
*****
 28 31 0 0 0
SMALL
GASTEIGER

@<TRIPOS>ATOM
      1 C         138.9348  139.8737  164.9212 C.ar    1  UNL1        0.0681
      2 C         139.2027  138.6151  164.1503 C.ar    1  UNL1        0.0208
      3 C         138.6743  138.4637  162.7547 C.ar    1  UNL1        0.0384
      4 C         137.8781  139.5707  162.1299 C.ar    1  UNL1        0.1386
      5 C         137.6102  140.8293  162.9008 C.ar    1  UNL1        0.0384
      6 C         138.1386  140.9808  164.2965 C.ar    1  UNL1        0.0208
      7 C         144.2868  142.6770  169.8455 C.3     1  UNL1        0.0310
      8 C         143.0312  141.8940  169.5997 C.ar    1  UNL1       -0.0216
      9 C         142.3039  141.2625  170.7496 C.ar    1  UNL1       -0.0027
     10 C         141.0483  140.4795  170.5039 C.ar    1  UNL1        0.0190
     11 C         140.5200  140.3280  169.1082 C.ar    1  UNL1        0.0872
     12 N         139.2644  139.5451  168.8625 N.ar    1  UNL1       -0.2318
     13 C         138.7360  139.3936  167.4668 C.ar    1  UNL1        0.1268
     14 C         137.4804  138.6106  167.2211 C.3     1  UNL1        0.0723
     15 N         139.4632  140.0252  166.3169 N.ar    1  UNL1       -0.2626
     16 C         140.7188  140.8081  166.5626 C.ar    1  UNL1        0.2669
     17 O         141.4460  141.4397  165.4127 O.2     1  UNL1       -0.2665
     18 C         141.2472  140.9596  167.9584 C.ar    1  UNL1        0.0739
     19 C         142.5028  141.7426  168.2041 C.ar    1  UNL1        0.0020
     20 O         137.3497  139.4193  160.7343 O.3     1  UNL1       -0.4754
     21 C         138.0757  140.0527  159.5846 C.3     1  UNL1        0.2068
     22 C         139.3800  139.4804  159.1143 C.3     1  UNL1        0.0646
     23 C         140.6727  140.1095  159.5421 C.3     1  UNL1        0.0759
     24 N         141.4258  139.5531  160.7140 N.3     1  UNL1       -0.2726
     25 C         141.8486  140.3173  161.9336 C.3     1  UNL1        0.0721
     26 C         142.5725  139.3715  162.8454 C.3     1  UNL1        0.0188
     27 C         142.5971  138.0227  162.1893 C.3     1  UNL1        0.0188
     28 C         141.8884  138.1351  160.8721 C.3     1  UNL1        0.0721
@<TRIPOS>BOND
     1     7     8    1
     2     8     9   ar
     3     9    10   ar
     4    10    11   ar
     5    11    12   ar
     6    12    13   ar
     7    13    14    1
     8    13    15   ar
     9    15     1    1
    10     1     2   ar
    11     2     3   ar
    12     3     4   ar
    13     4    20    1
    14    20    21    1
    15    21    22    1
    16    22    23    1
    17    23    24    1
    18    24    25    1
    19    25    26    1
    20    26    27    1
    21    27    28    1
    22     4     5   ar
    23     5     6   ar
    24    15    16   ar
    25    16    17    2
    26    16    18   ar
    27    18    19   ar
    28    19     8   ar
    29    18    11   ar
    30     6     1   ar
    31    28    24    1
@<TRIPOS>MOLECULE
*****
 28 31 0 0 0
SMALL
GASTEIGER

@<TRIPOS>ATOM
      1 C         140.4225  139.3462  164.5877 C.ar    1  UNL1        0.0681
      2 C         141.0596  138.0311  164.2489 C.ar    1  UNL1        0.0208
      3 C         141.2000  137.6130  162.8153 C.ar    1  UNL1        0.0384
      4 C         140.7033  138.5099  161.7204 C.ar    1  UNL1        0.1386
      5 C         140.0662  139.8249  162.0591 C.ar    1  UNL1        0.0384
      6 C         139.9258  140.2431  163.4928 C.ar    1  UNL1        0.0208
      7 C         143.0583  143.3312  170.7459 C.3     1  UNL1        0.0310
      8 C         142.0393  142.4210  170.1268 C.ar    1  UNL1       -0.0216
      9 C         140.8799  141.9289  170.9415 C.ar    1  UNL1       -0.0027
     10 C         139.8609  141.0187  170.3224 C.ar    1  UNL1        0.0190
     11 C         140.0013  140.6006  168.8888 C.ar    1  UNL1        0.0872
     12 N         138.9823  139.6904  168.2697 N.ar    1  UNL1       -0.2318
     13 C         139.1227  139.2723  166.8361 C.ar    1  UNL1        0.1268
     14 C         138.1037  138.3621  166.2171 C.3     1  UNL1        0.0723
     15 N         140.2821  139.7644  166.0214 N.ar    1  UNL1       -0.2626
     16 C         141.3011  140.6746  166.6404 C.ar    1  UNL1        0.2669
     17 O         142.4605  141.1666  165.8258 O.2     1  UNL1       -0.2665
     18 C         141.1607  141.0927  168.0742 C.ar    1  UNL1        0.0739
     19 C         142.1797  142.0029  168.6932 C.ar    1  UNL1        0.0020
     20 O         140.8437  138.0918  160.2867 O.3     1  UNL1       -0.4754
     21 C         142.0603  138.4902  159.5049 C.3     1  UNL1        0.2068
     22 C         143.3485  138.7784  160.2173 C.3     1  UNL1        0.0646
     23 C         143.6917  140.1858  160.6064 C.3     1  UNL1        0.0759
     24 N         144.3853  140.4559  161.9088 N.3     1  UNL1       -0.2726
     25 C         145.1423  141.7016  162.2627 C.3     1  UNL1        0.0721
     26 C         145.6686  141.5434  163.6584 C.3     1  UNL1        0.0188
     27 C         145.2369  140.1999  164.1670 C.3     1  UNL1        0.0188
     28 C         144.4438  139.5278  163.0857 C.3     1  UNL1        0.0721
@<TRIPOS>BOND
     1     7     8    1
     2     8     9   ar
     3     9    10   ar
     4    10    11   ar
     5    11    12   ar
     6    12    13   ar
     7    13    14    1
     8    13    15   ar
     9    15     1    1
    10     1     2   ar
    11     2     3   ar
    12     3     4   ar
    13     4    20    1
    14    20    21    1
    15    21    22    1
    16    22    23    1
    17    23    24    1
    18    24    25    1
    19    25    26    1
    20    26    27    1
    21    27    28    1
    22     4     5   ar
    23     5     6   ar
    24    15    16   ar
    25    16    17    2
    26    16    18   ar
    27    18    19   ar
    28    19     8   ar
    29    18    11   ar
    30     6     1   ar
    31    28    24    1
@<TRIPOS>MOLECULE
*****
 28 31 0 0 0
SMALL
GASTEIGER

@<TRIPOS>ATOM
      1 C         138.9741  140.0231  164.8730 C.ar    1  UNL1        0.0681
      2 C         139.3760  138.8739  163.9967 C.ar    1  UNL1        0.0208
      3 C         138.8479  138.7783  162.5960 C.ar    1  UNL1        0.0384
      4 C         137.9179  139.8319  162.0716 C.ar    1  UNL1        0.1386
      5 C         137.5160  140.9810  162.9478 C.ar    1  UNL1        0.0384
      6 C         138.0441  141.0767  164.3485 C.ar    1  UNL1        0.0208
      7 C         144.3030  142.6605  169.9125 C.3     1  UNL1        0.0310
      8 C         143.0548  141.8769  169.6334 C.ar    1  UNL1       -0.0216
      9 C         142.3346  141.1890  170.7549 C.ar    1  UNL1       -0.0027
     10 C         141.0863  140.4055  170.4758 C.ar    1  UNL1        0.0190
     11 C         140.5582  140.3099  169.0752 C.ar    1  UNL1        0.0872
     12 N         139.3100  139.5263  168.7961 N.ar    1  UNL1       -0.2318
     13 C         138.7819  139.4307  167.3954 C.ar    1  UNL1        0.1268
     14 C         137.5336  138.6472  167.1163 C.3     1  UNL1        0.0723
     15 N         139.5021  140.1187  166.2737 N.ar    1  UNL1       -0.2626
     16 C         140.7504  140.9022  166.5528 C.ar    1  UNL1        0.2669
     17 O         141.4706  141.5902  165.4312 O.2     1  UNL1       -0.2665
     18 C         141.2784  140.9978  167.9536 C.ar    1  UNL1        0.0739
     19 C         142.5267  141.7813  168.2327 C.ar    1  UNL1        0.0020
     20 O         137.3899  139.7363  160.6709 O.3     1  UNL1       -0.4754
     21 C         138.0841  140.4618  159.5564 C.3     1  UNL1        0.2068
     22 C         139.2731  141.3274  159.8511 C.3     1  UNL1        0.0646
     23 C         139.1121  142.8156  159.9463 C.3     1  UNL1        0.0759
     24 N         139.8312  143.5808  161.0176 N.3     1  UNL1       -0.2726
     25 C         139.9843  145.0715  161.0846 C.3     1  UNL1        0.0721
     26 C         140.7712  145.4016  162.3183 C.3     1  UNL1        0.0188
     27 C         141.1043  144.1149  163.0137 C.3     1  UNL1        0.0188
     28 C         140.5234  142.9896  162.2098 C.3     1  UNL1        0.0721
@<TRIPOS>BOND
     1     7     8    1
     2     8     9   ar
     3     9    10   ar
     4    10    11   ar
     5    11    12   ar
     6    12    13   ar
     7    13    14    1
     8    13    15   ar
     9    15     1    1
    10     1     2   ar
    11     2     3   ar
    12     3     4   ar
    13     4    20    1
    14    20    21    1
    15    21    22    1
    16    22    23    1
    17    23    24    1
    18    24    25    1
    19    25    26    1
    20    26    27    1
    21    27    28    1
    22     4     5   ar
    23     5     6   ar
    24    15    16   ar
    25    16    17    2
    26    16    18   ar
    27    18    19   ar
    28    19     8   ar
    29    18    11   ar
    30     6     1   ar
    31    28    24    1
@<TRIPOS>MOLECULE
*****
 28 31 0 0 0
SMALL
GASTEIGER

@<TRIPOS>ATOM
      1 C         143.1063  139.4528  164.6334 C.ar    1  UNL1        0.0681
      2 C         142.2862  138.4050  163.9408 C.ar    1  UNL1        0.0208
      3 C         142.5582  138.0677  162.5048 C.ar    1  UNL1        0.0384
      4 C         143.6501  138.7782  161.7613 C.ar    1  UNL1        0.1386
      5 C         144.4702  139.8260  162.4538 C.ar    1  UNL1        0.0384
      6 C         144.1983  140.1633  163.8899 C.ar    1  UNL1        0.0208
      7 C         140.1684  144.2916  169.9912 C.3     1  UNL1        0.0310
      8 C         140.8758  143.0159  169.6413 C.ar    1  UNL1       -0.0216
      9 C         141.3112  142.0776  170.7275 C.ar    1  UNL1       -0.0027
     10 C         142.0186  140.8020  170.3777 C.ar    1  UNL1        0.0190
     11 C         142.2905  140.4647  168.9416 C.ar    1  UNL1        0.0872
     12 N         142.9979  139.1891  168.5918 N.ar    1  UNL1       -0.2318
     13 C         143.2698  138.8518  167.1557 C.ar    1  UNL1        0.1268
     14 C         143.9772  137.5762  166.8059 C.3     1  UNL1        0.0723
     15 N         142.8344  139.7901  166.0695 N.ar    1  UNL1       -0.2626
     16 C         142.1270  141.0658  166.4193 C.ar    1  UNL1        0.2669
     17 O         141.6915  142.0041  165.3331 O.2     1  UNL1       -0.2665
     18 C         141.8551  141.4030  167.8554 C.ar    1  UNL1        0.0739
     19 C         141.1477  142.6786  168.2053 C.ar    1  UNL1        0.0020
     20 O         143.9221  138.4409  160.3252 O.3     1  UNL1       -0.4754
     21 C         142.7872  138.0891  159.4096 C.3     1  UNL1        0.2068
     22 C         141.8161  139.1475  158.9778 C.3     1  UNL1        0.0646
     23 C         140.3454  138.9503  159.1967 C.3     1  UNL1        0.0759
     24 N         139.7628  139.1137  160.5694 N.3     1  UNL1       -0.2726
     25 C         138.9839  138.0786  161.3256 C.3     1  UNL1        0.0721
     26 C         138.5967  138.6661  162.6503 C.3     1  UNL1        0.0188
     27 C         139.1362  140.0643  162.7128 C.3     1  UNL1        0.0188
     28 C         139.8570  140.3409  161.4267 C.3     1  UNL1        0.0721
@<TRIPOS>BOND
     1     7     8    1
     2     8     9   ar
     3     9    10   ar
     4    10    11   ar
     5    11    12   ar
     6    12    13   ar
     7    13    14    1
     8    13    15   ar
     9    15     1    1
    10     1     2   ar
    11     2     3   ar
    12     3     4   ar
    13     4    20    1
    14    20    21    1
    15    21    22    1
    16    22    23    1
    17    23    24    1
    18    24    25    1
    19    25    26    1
    20    26    27    1
    21    27    28    1
    22     4     5   ar
    23     5     6   ar
    24    15    16   ar
    25    16    17    2
    26    16    18   ar
    27    18    19   ar
    28    19     8   ar
    29    18    11   ar
    30     6     1   ar
    31    28    24    1
@<TRIPOS>MOLECULE
*****
 28 31 0 0 0
SMALL
GASTEIGER

@<TRIPOS>ATOM
      1 C         141.9463  139.7784  163.5154 C.ar    1  UNL1        0.0681
      2 C         143.3082  139.1575  163.4160 C.ar    1  UNL1        0.0208
      3 C         143.9754  139.0230  162.0793 C.ar    1  UNL1        0.0384
      4 C         143.2807  139.5092  160.8420 C.ar    1  UNL1        0.1386
      5 C         141.9188  140.1300  160.9413 C.ar    1  UNL1        0.0384
      6 C         141.2516  140.2646  162.2780 C.ar    1  UNL1        0.0208
      7 C         140.6465  143.8535  170.0310 C.3     1  UNL1        0.0310
      8 C         140.4126  142.6297  169.1958 C.ar    1  UNL1       -0.0216
      9 C         139.5115  141.5405  169.6973 C.ar    1  UNL1       -0.0027
     10 C         139.2776  140.3166  168.8621 C.ar    1  UNL1        0.0190
     11 C         139.9447  140.1821  167.5254 C.ar    1  UNL1        0.0872
     12 N         139.7108  138.9582  166.6902 N.ar    1  UNL1       -0.2318
     13 C         140.3780  138.8237  165.3536 C.ar    1  UNL1        0.1268
     14 C         140.1440  137.5998  164.5184 C.3     1  UNL1        0.0723
     15 N         141.2791  139.9129  164.8520 N.ar    1  UNL1       -0.2626
     16 C         141.5130  141.1368  165.6872 C.ar    1  UNL1        0.2669
     17 O         142.4141  142.2260  165.1857 O.2     1  UNL1       -0.2665
     18 C         140.8458  141.2713  167.0239 C.ar    1  UNL1        0.0739
     19 C         141.0797  142.4951  167.8591 C.ar    1  UNL1        0.0020
     20 O         143.9478  139.3746  159.5053 O.3     1  UNL1       -0.4754
     21 C         143.6346  140.3496  158.4091 C.3     1  UNL1        0.2068
     22 C         144.3159  141.6855  158.3764 C.3     1  UNL1        0.0646
     23 C         143.5610  142.9220  158.7652 C.3     1  UNL1        0.0759
     24 N         143.4496  143.3095  160.2100 N.3     1  UNL1       -0.2726
     25 C         144.4964  143.0969  161.2631 C.3     1  UNL1        0.0721
     26 C         143.9656  143.6336  162.5594 C.3     1  UNL1        0.0188
     27 C         142.5906  144.1778  162.3073 C.3     1  UNL1        0.0188
     28 C         142.2718  143.9775  160.8554 C.3     1  UNL1        0.0721
@<TRIPOS>BOND
     1     7     8    1
     2     8     9   ar
     3     9    10   ar
     4    10    11   ar
     5    11    12   ar
     6    12    13   ar
     7    13    14    1
     8    13    15   ar
     9    15     1    1
    10     1     2   ar
    11     2     3   ar
    12     3     4   ar
    13     4    20    1
    14    20    21    1
    15    21    22    1
    16    22    23    1
    17    23    24    1
    18    24    25    1
    19    25    26    1
    20    26    27    1
    21    27    28    1
    22     4     5   ar
    23     5     6   ar
    24    15    16   ar
    25    16    17    2
    26    16    18   ar
    27    18    19   ar
    28    19     8   ar
    29    18    11   ar
    30     6     1   ar
    31    28    24    1
@<TRIPOS>MOLECULE
*****
 28 31 0 0 0
SMALL
GASTEIGER

@<TRIPOS>ATOM
      1 C         142.9049  139.3125  164.7123 C.ar    1  UNL1        0.0681
      2 C         144.1267  139.7692  163.9715 C.ar    1  UNL1        0.0208
      3 C         144.3243  139.3774  162.5371 C.ar    1  UNL1        0.0384
      4 C         143.3001  138.5290  161.8434 C.ar    1  UNL1        0.1386
      5 C         142.0783  138.0723  162.5841 C.ar    1  UNL1        0.0384
      6 C         141.8807  138.4640  164.0186 C.ar    1  UNL1        0.0208
      7 C         140.1944  144.3268  170.0282 C.3     1  UNL1        0.0310
      8 C         140.9003  143.0471  169.6907 C.ar    1  UNL1       -0.0216
      9 C         141.4087  142.1591  170.7874 C.ar    1  UNL1       -0.0027
     10 C         142.1146  140.8793  170.4498 C.ar    1  UNL1        0.0190
     11 C         142.3121  140.4876  169.0155 C.ar    1  UNL1        0.0872
     12 N         143.0181  139.2079  168.6779 N.ar    1  UNL1       -0.2318
     13 C         143.2156  138.8161  167.2435 C.ar    1  UNL1        0.1268
     14 C         143.9215  137.5364  166.9059 C.3     1  UNL1        0.0723
     15 N         142.7073  139.7042  166.1466 N.ar    1  UNL1       -0.2626
     16 C         142.0014  140.9839  166.4842 C.ar    1  UNL1        0.2669
     17 O         141.4931  141.8719  165.3874 O.2     1  UNL1       -0.2665
     18 C         141.8038  141.3756  167.9187 C.ar    1  UNL1        0.0739
     19 C         141.0979  142.6554  168.2563 C.ar    1  UNL1        0.0020
     20 O         143.4977  138.1373  160.4091 O.3     1  UNL1       -0.4754
     21 C         143.2002  139.1200  159.3154 C.3     1  UNL1        0.2068
     22 C         141.9044  139.8754  159.3179 C.3     1  UNL1        0.0646
     23 C         141.9088  141.3718  159.4209 C.3     1  UNL1        0.0759
     24 N         142.6956  142.0466  160.5052 N.3     1  UNL1       -0.2726
     25 C         144.1165  142.5161  160.4018 C.3     1  UNL1        0.0721
     26 C         144.4986  143.1300  161.7159 C.3     1  UNL1        0.0188
     27 C         143.3139  143.0400  162.6316 C.3     1  UNL1        0.0188
     28 C         142.1996  142.3704  161.8833 C.3     1  UNL1        0.0721
@<TRIPOS>BOND
     1     7     8    1
     2     8     9   ar
     3     9    10   ar
     4    10    11   ar
     5    11    12   ar
     6    12    13   ar
     7    13    14    1
     8    13    15   ar
     9    15     1    1
    10     1     2   ar
    11     2     3   ar
    12     3     4   ar
    13     4    20    1
    14    20    21    1
    15    21    22    1
    16    22    23    1
    17    23    24    1
    18    24    25    1
    19    25    26    1
    20    26    27    1
    21    27    28    1
    22     4     5   ar
    23     5     6   ar
    24    15    16   ar
    25    16    17    2
    26    16    18   ar
    27    18    19   ar
    28    19     8   ar
    29    18    11   ar
    30     6     1   ar
    31    28    24    1
@<TRIPOS>MOLECULE
*****
 28 31 0 0 0
SMALL
GASTEIGER

@<TRIPOS>ATOM
      1 C         139.8575  139.1810  159.7697 C.ar    1  UNL1        0.0681
      2 C         138.8992  138.4491  160.6620 C.ar    1  UNL1        0.0208
      3 C         137.9649  139.2170  161.5492 C.ar    1  UNL1        0.0384
      4 C         137.9887  140.7168  161.5442 C.ar    1  UNL1        0.1386
      5 C         138.9469  141.4487  160.6520 C.ar    1  UNL1        0.0384
      6 C         139.8813  140.6808  159.7647 C.ar    1  UNL1        0.0208
      7 C         141.3642  135.6911  152.9653 C.3     1  UNL1        0.0310
      8 C         141.7964  136.0864  154.3462 C.ar    1  UNL1       -0.0216
      9 C         143.1629  135.7139  154.8398 C.ar    1  UNL1       -0.0027
     10 C         143.5951  136.1093  156.2207 C.ar    1  UNL1        0.0190
     11 C         142.6607  136.8772  157.1080 C.ar    1  UNL1        0.0872
     12 N         143.0929  137.2726  158.4889 N.ar    1  UNL1       -0.2318
     13 C         142.1585  138.0405  159.3761 C.ar    1  UNL1        0.1268
     14 C         142.5907  138.4359  160.7570 C.3     1  UNL1        0.0723
     15 N         140.7919  138.4131  158.8825 N.ar    1  UNL1       -0.2626
     16 C         140.3597  138.0177  157.5015 C.ar    1  UNL1        0.2669
     17 O         138.9932  138.3902  157.0079 O.2     1  UNL1       -0.2665
     18 C         141.2942  137.2497  156.6143 C.ar    1  UNL1        0.0739
     19 C         140.8620  136.8544  155.2334 C.ar    1  UNL1        0.0020
     20 O         137.0543  141.4847  162.4314 O.3     1  UNL1       -0.4754
     21 C         137.5776  142.6046  163.2813 C.3     1  UNL1        0.2068
     22 C         138.1109  142.3185  164.6537 C.3     1  UNL1        0.0646
     23 C         139.4247  141.6131  164.8157 C.3     1  UNL1        0.0759
     24 N         139.4839  140.1153  164.7584 N.3     1  UNL1       -0.2726
     25 C         140.5801  139.2993  164.1399 C.3     1  UNL1        0.0721
     26 C         140.2310  137.8503  164.3086 C.3     1  UNL1        0.0188
     27 C         138.9189  137.7708  165.0314 C.3     1  UNL1        0.0188
     28 C         138.4573  139.1706  165.3094 C.3     1  UNL1        0.0721
@<TRIPOS>BOND
     1     7     8    1
     2     8     9   ar
     3     9    10   ar
     4    10    11   ar
     5    11    12   ar
     6    12    13   ar
     7    13    14    1
     8    13    15   ar
     9    15     1    1
    10     1     2   ar
    11     2     3   ar
    12     3     4   ar
    13     4    20    1
    14    20    21    1
    15    21    22    1
    16    22    23    1
    17    23    24    1
    18    24    25    1
    19    25    26    1
    20    26    27    1
    21    27    28    1
    22     4     5   ar
    23     5     6   ar
    24    15    16   ar
    25    16    17    2
    26    16    18   ar
    27    18    19   ar
    28    19     8   ar
    29    18    11   ar
    30     6     1   ar
    31    28    24    1
@<TRIPOS>MOLECULE
*****
 28 31 0 0 0
SMALL
GASTEIGER

@<TRIPOS>ATOM
      1 C         139.8004  139.2400  164.7131 C.ar    1  UNL1        0.0681
      2 C         140.2536  137.8919  164.2365 C.ar    1  UNL1        0.0208
      3 C         140.0144  137.4797  162.8142 C.ar    1  UNL1        0.0384
      4 C         139.3218  138.4156  161.8685 C.ar    1  UNL1        0.1386
      5 C         138.8686  139.7638  162.3450 C.ar    1  UNL1        0.0384
      6 C         139.1079  140.1760  163.7673 C.ar    1  UNL1        0.0208
      7 C         144.3002  142.6492  170.0870 C.3     1  UNL1        0.0310
      8 C         143.0395  141.9250  169.7180 C.ar    1  UNL1       -0.0216
      9 C         142.0181  141.6129  170.7712 C.ar    1  UNL1       -0.0027
     10 C         140.7574  140.8887  170.4021 C.ar    1  UNL1        0.0190
     11 C         140.5182  140.4765  168.9799 C.ar    1  UNL1        0.0872
     12 N         139.2575  139.7523  168.6109 N.ar    1  UNL1       -0.2318
     13 C         139.0182  139.3401  167.1886 C.ar    1  UNL1        0.1268
     14 C         137.7575  138.6159  166.8196 C.3     1  UNL1        0.0723
     15 N         140.0396  139.6522  166.1353 N.ar    1  UNL1       -0.2626
     16 C         141.3003  140.3764  166.5043 C.ar    1  UNL1        0.2669
     17 O         142.3217  140.6885  165.4511 O.2     1  UNL1       -0.2665
     18 C         141.5396  140.7886  167.9267 C.ar    1  UNL1        0.0739
     19 C         142.8003  141.5128  168.2957 C.ar    1  UNL1        0.0020
     20 O         139.0826  138.0035  160.4463 O.3     1  UNL1       -0.4754
     21 C         139.7900  138.7138  159.3304 C.3     1  UNL1        0.2068
     22 C         139.8634  138.0869  157.9697 C.3     1  UNL1        0.0646
     23 C         141.0121  138.4041  157.0588 C.3     1  UNL1        0.0759
     24 N         141.8218  137.2934  156.4580 N.3     1  UNL1       -0.2726
     25 C         141.6527  136.7247  155.0803 C.3     1  UNL1        0.0721
     26 C         142.6690  135.6363  154.9001 C.3     1  UNL1        0.0188
     27 C         143.4662  135.5323  156.1666 C.3     1  UNL1        0.0188
     28 C         142.9426  136.5565  157.1293 C.3     1  UNL1        0.0721
@<TRIPOS>BOND
     1     7     8    1
     2     8     9   ar
     3     9    10   ar
     4    10    11   ar
     5    11    12   ar
     6    12    13   ar
     7    13    14    1
     8    13    15   ar
     9    15     1    1
    10     1     2   ar
    11     2     3   ar
    12     3     4   ar
    13     4    20    1
    14    20    21    1
    15    21    22    1
    16    22    23    1
    17    23    24    1
    18    24    25    1
    19    25    26    1
    20    26    27    1
    21    27    28    1
    22     4     5   ar
    23     5     6   ar
    24    15    16   ar
    25    16    17    2
    26    16    18   ar
    27    18    19   ar
    28    19     8   ar
    29    18    11   ar
    30     6     1   ar
    31    28    24    1
