@<TRIPOS>MOLECULE
*****
 27 29 0 0 0
SMALL
GASTEIGER

@<TRIPOS>ATOM
      1 C         142.6237  142.7496  165.2327 C.ar    1  UNL1        0.0186
      2 C         141.2603  143.3235  164.9846 C.ar    1  UNL1        0.0105
      3 C         141.0818  144.4277  163.9851 C.ar    1  UNL1        0.0576
      4 CL        139.7183  145.0017  163.7370 Cl      1  UNL1       -0.0823
      5 C         142.2668  144.9579  163.2336 C.ar    1  UNL1        0.0145
      6 C         143.6303  144.3840  163.4817 C.ar    1  UNL1        0.0375
      7 C         143.8088  143.2798  164.4812 C.ar    1  UNL1        0.1354
      8 C         142.8022  141.6455  166.2321 C.3     1  UNL1        0.0751
      9 CA        140.4426  141.9338  169.4100 C.ar    1  UNL1        0.0948
     10 C         139.5430  140.7515  169.2033 C.ar    1  UNL1        0.0203
     11 C         139.7298  139.8671  168.0062 C.ar    1  UNL1        0.0028
     12 C         140.8162  140.1651  167.0158 C.ar    1  UNL1        0.0151
     13 C         141.7158  141.3474  167.2225 C.ar    1  UNL1        0.0635
     14 N         141.5290  142.2318  168.4196 N.ar    1  UNL1       -0.2482
     15 O         139.9420  144.2733  170.4229 O.co2   1  UNL1       -0.5430
     16 C         140.2558  142.8182  170.6071 C.2     1  UNL1        0.0905
     17 OXT       140.3828  142.2473  171.9884 O.co2   1  UNL1       -0.5430
     18 O         145.1722  142.7059  164.7292 O.3     1  UNL1       -0.4709
     19 C         145.7471  141.6999  163.7767 C.3     1  UNL1        0.2342
     20 C         144.8387  140.7646  163.0350 C.ar    1  UNL1        0.0487
     21 C         144.3405  141.1296  161.6681 C.ar    1  UNL1        0.0024
     22 C         143.4320  140.1944  160.9264 C.ar    1  UNL1        0.0113
     23 C         143.0217  138.8942  161.5518 C.ar    1  UNL1        0.0599
     24 CL        142.1133  137.9589  160.8101 Cl      1  UNL1       -0.0822
     25 C         143.5199  138.5292  162.9187 C.ar    1  UNL1        0.0408
     26 C         144.4284  139.4644  163.6603 C.ar    1  UNL1        0.1404
     27 F         144.9265  139.0994  165.0274 F       1  UNL1       -0.2044
@<TRIPOS>UNITY_ATOM_ATTR
17 1
charge -1
@<TRIPOS>BOND
     1    15    16   ar
     2    16    17   ar
     3    16     9    1
     4     9    10   ar
     5    10    11   ar
     6    11    12   ar
     7    12    13   ar
     8    13     8    1
     9     8     1    1
    10     1     2   ar
    11     2     3   ar
    12     3     4    1
    13     3     5   ar
    14     5     6   ar
    15     6     7   ar
    16     7    18    1
    17    18    19    1
    18    19    20    1
    19    20    21   ar
    20    21    22   ar
    21    22    23   ar
    22    23    24    1
    23    23    25   ar
    24    25    26   ar
    25    26    27    1
    26    13    14   ar
    27    14     9   ar
    28     7     1   ar
    29    26    20   ar
@<TRIPOS>MOLECULE
*****
 27 29 0 0 0
SMALL
GASTEIGER

@<TRIPOS>ATOM
      1 C         138.6668  140.5909  165.0863 C.ar    1  UNL1        0.0186
      2 C         138.4111  142.0590  164.9153 C.ar    1  UNL1        0.0105
      3 C         137.8919  142.5827  163.6091 C.ar    1  UNL1        0.0576
      4 CL        137.6363  144.0509  163.4381 Cl      1  UNL1       -0.0823
      5 C         137.6285  141.6384  162.4739 C.ar    1  UNL1        0.0145
      6 C         137.8841  140.1702  162.6449 C.ar    1  UNL1        0.0375
      7 C         138.4033  139.6465  163.9511 C.ar    1  UNL1        0.1354
      8 C         139.1859  140.0671  166.3925 C.3     1  UNL1        0.0751
      9 CA        140.8544  142.0728  169.3831 C.ar    1  UNL1        0.0948
     10 C         142.1582  142.4764  168.7611 C.ar    1  UNL1        0.0203
     11 C         142.4714  142.0770  167.3496 C.ar    1  UNL1        0.0028
     12 C         141.4806  141.2739  166.5601 C.ar    1  UNL1        0.0151
     13 C         140.1767  140.8703  167.1821 C.ar    1  UNL1        0.0635
     14 N         139.8636  141.2697  168.5936 N.ar    1  UNL1       -0.2482
     15 O         139.2965  143.2537  171.0944 O.co2   1  UNL1       -0.5430
     16 C         140.5412  142.4722  170.7947 C.2     1  UNL1        0.0905
     17 OXT       141.4728  142.0901  171.9064 O.co2   1  UNL1       -0.5430
     18 O         138.6589  138.1784  164.1221 O.3     1  UNL1       -0.4709
     19 C         139.8961  137.5599  163.5417 C.3     1  UNL1        0.2342
     20 C         141.2277  138.2224  163.7360 C.ar    1  UNL1        0.0487
     21 C         142.0306  137.9443  164.9721 C.ar    1  UNL1        0.0024
     22 C         143.3622  138.6068  165.1664 C.ar    1  UNL1        0.0113
     23 C         143.8911  139.5474  164.1246 C.ar    1  UNL1        0.0599
     24 CL        145.2227  140.2100  164.3189 Cl      1  UNL1       -0.0822
     25 C         143.0882  139.8256  162.8885 C.ar    1  UNL1        0.0408
     26 C         141.7566  139.1631  162.6942 C.ar    1  UNL1        0.1404
     27 F         140.9537  139.4413  161.4579 F       1  UNL1       -0.2044
@<TRIPOS>UNITY_ATOM_ATTR
17 1
charge -1
@<TRIPOS>BOND
     1    15    16   ar
     2    16    17   ar
     3    16     9    1
     4     9    10   ar
     5    10    11   ar
     6    11    12   ar
     7    12    13   ar
     8    13     8    1
     9     8     1    1
    10     1     2   ar
    11     2     3   ar
    12     3     4    1
    13     3     5   ar
    14     5     6   ar
    15     6     7   ar
    16     7    18    1
    17    18    19    1
    18    19    20    1
    19    20    21   ar
    20    21    22   ar
    21    22    23   ar
    22    23    24    1
    23    23    25   ar
    24    25    26   ar
    25    26    27    1
    26    13    14   ar
    27    14     9   ar
    28     7     1   ar
    29    26    20   ar
@<TRIPOS>MOLECULE
*****
 27 29 0 0 0
SMALL
GASTEIGER

@<TRIPOS>ATOM
      1 C         143.0900  139.1925  164.9551 C.ar    1  UNL1        0.0186
      2 C         144.1381  140.2641  164.8991 C.ar    1  UNL1        0.0105
      3 C         144.8383  140.5616  163.6062 C.ar    1  UNL1        0.0576
      4 CL        145.8864  141.6331  163.5502 Cl      1  UNL1       -0.0823
      5 C         144.4902  139.7875  162.3695 C.ar    1  UNL1        0.0145
      6 C         143.4421  138.7159  162.4255 C.ar    1  UNL1        0.0375
      7 C         142.7420  138.4184  163.7183 C.ar    1  UNL1        0.1354
      8 C         142.3899  138.8951  166.2479 C.3     1  UNL1        0.0751
      9 CA        140.6621  140.9029  169.2031 C.ar    1  UNL1        0.0948
     10 C         140.3649  142.2069  168.5241 C.ar    1  UNL1        0.0203
     11 C         140.7428  142.4070  167.0863 C.ar    1  UNL1        0.0028
     12 C         141.4177  141.3031  166.3276 C.ar    1  UNL1        0.0151
     13 C         141.7149  139.9991  167.0067 C.ar    1  UNL1        0.0635
     14 N         141.3371  139.7990  168.4444 N.ar    1  UNL1       -0.2482
     15 O         140.6970  141.7108  171.6721 O.co2   1  UNL1       -0.5430
     16 C         140.2842  140.7028  170.6409 C.2     1  UNL1        0.0905
     17 OXT       139.4937  139.4946  171.0475 O.co2   1  UNL1       -0.5430
     18 O         141.6938  137.3469  163.7743 O.3     1  UNL1       -0.4709
     19 C         140.3118  137.6219  163.2602 C.3     1  UNL1        0.2342
     20 C         139.6307  138.9157  163.5950 C.ar    1  UNL1        0.0487
     21 C         139.7680  140.0948  162.6781 C.ar    1  UNL1        0.0024
     22 C         139.0869  141.3886  163.0129 C.ar    1  UNL1        0.0113
     23 C         138.2685  141.5034  164.2647 C.ar    1  UNL1        0.0599
     24 CL        137.5874  142.7972  164.5995 Cl      1  UNL1       -0.0822
     25 C         138.1312  140.3243  165.1816 C.ar    1  UNL1        0.0408
     26 C         138.8123  139.0304  164.8468 C.ar    1  UNL1        0.1404
     27 F         138.6750  137.8513  165.7638 F       1  UNL1       -0.2044
@<TRIPOS>UNITY_ATOM_ATTR
17 1
charge -1
@<TRIPOS>BOND
     1    15    16   ar
     2    16    17   ar
     3    16     9    1
     4     9    10   ar
     5    10    11   ar
     6    11    12   ar
     7    12    13   ar
     8    13     8    1
     9     8     1    1
    10     1     2   ar
    11     2     3   ar
    12     3     4    1
    13     3     5   ar
    14     5     6   ar
    15     6     7   ar
    16     7    18    1
    17    18    19    1
    18    19    20    1
    19    20    21   ar
    20    21    22   ar
    21    22    23   ar
    22    23    24    1
    23    23    25   ar
    24    25    26   ar
    25    26    27    1
    26    13    14   ar
    27    14     9   ar
    28     7     1   ar
    29    26    20   ar
@<TRIPOS>MOLECULE
*****
 27 29 0 0 0
SMALL
GASTEIGER

@<TRIPOS>ATOM
      1 C         139.6881  140.6691  164.9128 C.ar    1  UNL1        0.0186
      2 C         139.0405  142.0042  164.6935 C.ar    1  UNL1        0.0105
      3 C         138.0542  142.1852  163.5778 C.ar    1  UNL1        0.0576
      4 CL        137.4066  143.5203  163.3585 Cl      1  UNL1       -0.0823
      5 C         137.7156  141.0311  162.6815 C.ar    1  UNL1        0.0145
      6 C         138.3632  139.6960  162.9008 C.ar    1  UNL1        0.0375
      7 C         139.3494  139.5150  164.0164 C.ar    1  UNL1        0.1354
      8 C         140.6743  140.4881  166.0284 C.3     1  UNL1        0.0751
      9 CA        140.4409  142.4834  169.4510 C.ar    1  UNL1        0.0948
     10 C         139.5335  141.5870  170.2404 C.ar    1  UNL1        0.0203
     11 C         139.0064  140.3243  169.6258 C.ar    1  UNL1        0.0028
     12 C         139.3866  139.9580  168.2218 C.ar    1  UNL1        0.0151
     13 C         140.2940  140.8544  167.4324 C.ar    1  UNL1        0.0635
     14 N         140.8211  142.1171  168.0470 N.ar    1  UNL1       -0.2482
     15 O         142.4109  143.8405  170.4646 O.co2   1  UNL1       -0.5430
     16 C         140.9680  143.7461  170.0656 C.2     1  UNL1        0.0905
     17 OXT       140.0523  144.9143  170.2813 O.co2   1  UNL1       -0.5430
     18 O         139.9970  138.1799  164.2357 O.3     1  UNL1       -0.4709
     19 C         141.2363  137.8133  163.4744 C.3     1  UNL1        0.2342
     20 C         142.4153  138.7406  163.4694 C.ar    1  UNL1        0.0487
     21 C         142.6422  139.6590  162.3053 C.ar    1  UNL1        0.0024
     22 C         143.8212  140.5863  162.3003 C.ar    1  UNL1        0.0113
     23 C         144.7733  140.5953  163.4593 C.ar    1  UNL1        0.0599
     24 CL        145.9522  141.5227  163.4543 Cl      1  UNL1       -0.0822
     25 C         144.5463  139.6770  164.6234 C.ar    1  UNL1        0.0408
     26 C         143.3673  138.7497  164.6284 C.ar    1  UNL1        0.1404
     27 F         143.1404  137.8313  165.7926 F       1  UNL1       -0.2044
@<TRIPOS>UNITY_ATOM_ATTR
17 1
charge -1
@<TRIPOS>BOND
     1    15    16   ar
     2    16    17   ar
     3    16     9    1
     4     9    10   ar
     5    10    11   ar
     6    11    12   ar
     7    12    13   ar
     8    13     8    1
     9     8     1    1
    10     1     2   ar
    11     2     3   ar
    12     3     4    1
    13     3     5   ar
    14     5     6   ar
    15     6     7   ar
    16     7    18    1
    17    18    19    1
    18    19    20    1
    19    20    21   ar
    20    21    22   ar
    21    22    23   ar
    22    23    24    1
    23    23    25   ar
    24    25    26   ar
    25    26    27    1
    26    13    14   ar
    27    14     9   ar
    28     7     1   ar
    29    26    20   ar
@<TRIPOS>MOLECULE
*****
 27 29 0 0 0
SMALL
GASTEIGER

@<TRIPOS>ATOM
      1 C         141.2415  143.5383  165.0195 C.ar    1  UNL1        0.0186
      2 C         142.5511  142.8363  165.2247 C.ar    1  UNL1        0.0105
      3 C         143.7297  143.1806  164.3630 C.ar    1  UNL1        0.0576
      4 CL        145.0393  142.4786  164.5682 Cl      1  UNL1       -0.0823
      5 C         143.5986  144.2267  163.2961 C.ar    1  UNL1        0.0145
      6 C         142.2889  144.9287  163.0908 C.ar    1  UNL1        0.0375
      7 C         141.1104  144.5845  163.9525 C.ar    1  UNL1        0.1354
      8 C         140.0630  143.1941  165.8812 C.3     1  UNL1        0.0751
      9 CA        140.9003  141.8573  169.5229 C.ar    1  UNL1        0.0948
     10 C         140.5684  140.4021  169.3739 C.ar    1  UNL1        0.0203
     11 C         140.0681  139.8775  168.0607 C.ar    1  UNL1        0.0028
     12 C         139.8996  140.8082  166.8965 C.ar    1  UNL1        0.0151
     13 C         140.2314  142.2634  167.0455 C.ar    1  UNL1        0.0635
     14 N         140.7318  142.7879  168.3587 N.ar    1  UNL1       -0.2482
     15 O         142.6465  143.2157  170.8851 O.co2   1  UNL1       -0.5430
     16 C         141.4006  142.3818  170.8361 C.2     1  UNL1        0.0905
     17 OXT       140.6551  142.0724  172.1004 O.co2   1  UNL1       -0.5430
     18 O         139.8008  145.2864  163.7473 O.3     1  UNL1       -0.4709
     19 C         138.9381  144.9359  162.5714 C.3     1  UNL1        0.2342
     20 C         138.5962  143.5021  162.2930 C.ar    1  UNL1        0.0487
     21 C         139.1271  142.8300  161.0616 C.ar    1  UNL1        0.0024
     22 C         138.7852  141.3962  160.7832 C.ar    1  UNL1        0.0113
     23 C         137.9124  140.6347  161.7361 C.ar    1  UNL1        0.0599
     24 CL        137.5705  139.2009  161.4577 Cl      1  UNL1       -0.0822
     25 C         137.3815  141.3068  162.9675 C.ar    1  UNL1        0.0408
     26 C         137.7234  142.7406  163.2459 C.ar    1  UNL1        0.1404
     27 F         137.1924  143.4127  164.4773 F       1  UNL1       -0.2044
@<TRIPOS>UNITY_ATOM_ATTR
17 1
charge -1
@<TRIPOS>BOND
     1    15    16   ar
     2    16    17   ar
     3    16     9    1
     4     9    10   ar
     5    10    11   ar
     6    11    12   ar
     7    12    13   ar
     8    13     8    1
     9     8     1    1
    10     1     2   ar
    11     2     3   ar
    12     3     4    1
    13     3     5   ar
    14     5     6   ar
    15     6     7   ar
    16     7    18    1
    17    18    19    1
    18    19    20    1
    19    20    21   ar
    20    21    22   ar
    21    22    23   ar
    22    23    24    1
    23    23    25   ar
    24    25    26   ar
    25    26    27    1
    26    13    14   ar
    27    14     9   ar
    28     7     1   ar
    29    26    20   ar
@<TRIPOS>MOLECULE
*****
 27 29 0 0 0
SMALL
GASTEIGER

@<TRIPOS>ATOM
      1 C         141.9244  140.5291  165.3059 C.ar    1  UNL1        0.0186
      2 C         142.7401  141.7606  165.0451 C.ar    1  UNL1        0.0105
      3 C         144.1624  141.6348  164.5853 C.ar    1  UNL1        0.0576
      4 CL        144.9780  142.8663  164.3245 Cl      1  UNL1       -0.0823
      5 C         144.7689  140.2774  164.3862 C.ar    1  UNL1        0.0145
      6 C         143.9532  139.0459  164.6470 C.ar    1  UNL1        0.0375
      7 C         142.5310  139.1717  165.1068 C.ar    1  UNL1        0.1354
      8 C         140.5022  140.6549  165.7657 C.3     1  UNL1        0.0751
      9 CA        140.4329  142.4255  169.3168 C.ar    1  UNL1        0.0948
     10 C         139.6018  141.4543  170.1016 C.ar    1  UNL1        0.0203
     11 C         139.0708  140.2166  169.4411 C.ar    1  UNL1        0.0028
     12 C         139.3710  139.9501  167.9959 C.ar    1  UNL1        0.0151
     13 C         140.2020  140.9213  167.2110 C.ar    1  UNL1        0.0635
     14 N         140.7330  142.1590  167.8715 N.ar    1  UNL1       -0.2482
     15 O         140.0544  144.8300  170.2250 O.co2   1  UNL1       -0.5430
     16 C         140.9638  143.6632  169.9772 C.2     1  UNL1        0.0905
     17 OXT       142.4041  143.7340  170.3900 O.co2   1  UNL1       -0.5430
     18 O         141.7154  137.9401  165.3676 O.3     1  UNL1       -0.4709
     19 C         141.2102  137.1181  164.2191 C.3     1  UNL1        0.2342
     20 C         140.3710  137.7560  163.1521 C.ar    1  UNL1        0.0487
     21 C         140.9308  137.9514  161.7743 C.ar    1  UNL1        0.0024
     22 C         140.0915  138.5894  160.7072 C.ar    1  UNL1        0.0113
     23 C         138.6924  139.0319  161.0179 C.ar    1  UNL1        0.0599
     24 CL        137.8532  139.6699  159.9508 Cl      1  UNL1       -0.0822
     25 C         138.1326  138.8366  162.3957 C.ar    1  UNL1        0.0408
     26 C         138.9719  138.1986  163.4628 C.ar    1  UNL1        0.1404
     27 F         138.4119  138.0032  164.8406 F       1  UNL1       -0.2044
@<TRIPOS>UNITY_ATOM_ATTR
17 1
charge -1
@<TRIPOS>BOND
     1    15    16   ar
     2    16    17   ar
     3    16     9    1
     4     9    10   ar
     5    10    11   ar
     6    11    12   ar
     7    12    13   ar
     8    13     8    1
     9     8     1    1
    10     1     2   ar
    11     2     3   ar
    12     3     4    1
    13     3     5   ar
    14     5     6   ar
    15     6     7   ar
    16     7    18    1
    17    18    19    1
    18    19    20    1
    19    20    21   ar
    20    21    22   ar
    21    22    23   ar
    22    23    24    1
    23    23    25   ar
    24    25    26   ar
    25    26    27    1
    26    13    14   ar
    27    14     9   ar
    28     7     1   ar
    29    26    20   ar
@<TRIPOS>MOLECULE
*****
 27 29 0 0 0
SMALL
GASTEIGER

@<TRIPOS>ATOM
      1 C         140.4851  139.9001  164.7811 C.ar    1  UNL1        0.0186
      2 C         139.3155  139.9668  163.8444 C.ar    1  UNL1        0.0105
      3 C         138.9220  138.7575  163.0487 C.ar    1  UNL1        0.0576
      4 CL        137.7524  138.8242  162.1119 Cl      1  UNL1       -0.0823
      5 C         139.6982  137.4818  163.1898 C.ar    1  UNL1        0.0145
      6 C         140.8678  137.4151  164.1265 C.ar    1  UNL1        0.0375
      7 C         141.2613  138.6243  164.9222 C.ar    1  UNL1        0.1354
      8 C         140.8786  141.1092  165.5768 C.3     1  UNL1        0.0751
      9 CA        140.5130  142.5195  169.2684 C.ar    1  UNL1        0.0948
     10 C         139.6740  141.4482  169.8993 C.ar    1  UNL1        0.0203
     11 C         139.2366  140.2638  169.0895 C.ar    1  UNL1        0.0028
     12 C         139.6381  140.1508  167.6487 C.ar    1  UNL1        0.0151
     13 C         140.4771  141.2222  167.0177 C.ar    1  UNL1        0.0635
     14 N         140.9145  142.4066  167.8275 N.ar    1  UNL1       -0.2482
     15 O         142.3168  143.7261  170.6969 O.co2   1  UNL1       -0.5430
     16 C         140.9505  143.7039  170.0782 C.2     1  UNL1        0.0905
     17 OXT       140.0218  144.8662  170.2693 O.co2   1  UNL1       -0.5430
     18 O         142.4309  138.5576  165.8590 O.3     1  UNL1       -0.4709
     19 C         143.8257  138.7136  165.3295 C.3     1  UNL1        0.2342
     20 C         144.1055  139.6964  164.2314 C.ar    1  UNL1        0.0487
     21 C         144.4843  141.1083  164.5671 C.ar    1  UNL1        0.0024
     22 C         144.7642  142.0911  163.4690 C.ar    1  UNL1        0.0113
     23 C         144.6652  141.6618  162.0351 C.ar    1  UNL1        0.0599
     24 CL        144.9451  142.6446  160.9370 Cl      1  UNL1       -0.0822
     25 C         144.2864  140.2499  161.6994 C.ar    1  UNL1        0.0408
     26 C         144.0066  139.2671  162.7976 C.ar    1  UNL1        0.1404
     27 F         143.6278  137.8550  162.4618 F       1  UNL1       -0.2044
@<TRIPOS>UNITY_ATOM_ATTR
17 1
charge -1
@<TRIPOS>BOND
     1    15    16   ar
     2    16    17   ar
     3    16     9    1
     4     9    10   ar
     5    10    11   ar
     6    11    12   ar
     7    12    13   ar
     8    13     8    1
     9     8     1    1
    10     1     2   ar
    11     2     3   ar
    12     3     4    1
    13     3     5   ar
    14     5     6   ar
    15     6     7   ar
    16     7    18    1
    17    18    19    1
    18    19    20    1
    19    20    21   ar
    20    21    22   ar
    21    22    23   ar
    22    23    24    1
    23    23    25   ar
    24    25    26   ar
    25    26    27    1
    26    13    14   ar
    27    14     9   ar
    28     7     1   ar
    29    26    20   ar
@<TRIPOS>MOLECULE
*****
 27 29 0 0 0
SMALL
GASTEIGER

@<TRIPOS>ATOM
      1 C         142.7212  141.8487  164.9302 C.ar    1  UNL1        0.0186
      2 C         143.1221  142.9071  163.9458 C.ar    1  UNL1        0.0105
      3 C         144.3755  142.7440  163.1380 C.ar    1  UNL1        0.0576
      4 CL        144.7764  143.8024  162.1536 Cl      1  UNL1       -0.0823
      5 C         145.2279  141.5225  163.3146 C.ar    1  UNL1        0.0145
      6 C         144.8270  140.4641  164.2990 C.ar    1  UNL1        0.0375
      7 C         143.5737  140.6271  165.1068 C.ar    1  UNL1        0.1354
      8 C         141.4679  142.0118  165.7380 C.3     1  UNL1        0.0751
      9 CA        138.4886  142.9232  163.2797 C.ar    1  UNL1        0.0948
     10 C         137.9096  144.1233  163.9687 C.ar    1  UNL1        0.0203
     11 C         138.5167  144.6195  165.2475 C.ar    1  UNL1        0.0028
     12 C         139.7028  143.9157  165.8372 C.ar    1  UNL1        0.0151
     13 C         140.2818  142.7157  165.1482 C.ar    1  UNL1        0.0635
     14 N         139.6746  142.2194  163.8695 N.ar    1  UNL1       -0.2482
     15 O         137.1649  141.1096  161.9727 O.co2   1  UNL1       -0.5430
     16 C         137.8814  142.4270  162.0010 C.2     1  UNL1        0.0905
     17 OXT       137.9909  143.2483  160.7506 O.co2   1  UNL1       -0.5430
     18 O         143.1728  139.5687  166.0912 O.3     1  UNL1       -0.4709
     19 C         142.6942  138.2335  165.6034 C.3     1  UNL1        0.2342
     20 C         141.5220  138.1517  164.6710 C.ar    1  UNL1        0.0487
     21 C         140.1277  138.2966  165.2047 C.ar    1  UNL1        0.0024
     22 C         138.9555  138.2149  164.2723 C.ar    1  UNL1        0.0113
     23 C         139.1777  137.9883  162.8062 C.ar    1  UNL1        0.0599
     24 CL        138.0055  137.9065  161.8739 Cl      1  UNL1       -0.0822
     25 C         140.5720  137.8434  162.2726 C.ar    1  UNL1        0.0408
     26 C         141.7442  137.9252  163.2050 C.ar    1  UNL1        0.1404
     27 F         143.1386  137.7803  162.6713 F       1  UNL1       -0.2044
@<TRIPOS>UNITY_ATOM_ATTR
17 1
charge -1
@<TRIPOS>BOND
     1    15    16   ar
     2    16    17   ar
     3    16     9    1
     4     9    10   ar
     5    10    11   ar
     6    11    12   ar
     7    12    13   ar
     8    13     8    1
     9     8     1    1
    10     1     2   ar
    11     2     3   ar
    12     3     4    1
    13     3     5   ar
    14     5     6   ar
    15     6     7   ar
    16     7    18    1
    17    18    19    1
    18    19    20    1
    19    20    21   ar
    20    21    22   ar
    21    22    23   ar
    22    23    24    1
    23    23    25   ar
    24    25    26   ar
    25    26    27    1
    26    13    14   ar
    27    14     9   ar
    28     7     1   ar
    29    26    20   ar
@<TRIPOS>MOLECULE
*****
 27 29 0 0 0
SMALL
GASTEIGER

@<TRIPOS>ATOM
      1 C         141.8719  138.1305  164.1792 C.ar    1  UNL1        0.0186
      2 C         142.6142  138.0464  162.8784 C.ar    1  UNL1        0.0105
      3 C         141.8569  137.9977  161.5845 C.ar    1  UNL1        0.0576
      4 CL        142.5991  137.9136  160.2837 Cl      1  UNL1       -0.0823
      5 C         140.3573  138.0331  161.5914 C.ar    1  UNL1        0.0145
      6 C         139.6150  138.1172  162.8921 C.ar    1  UNL1        0.0375
      7 C         140.3723  138.1659  164.1860 C.ar    1  UNL1        0.1354
      8 C         142.6292  138.1792  165.4730 C.3     1  UNL1        0.0751
      9 CA        143.3461  142.0134  166.2046 C.ar    1  UNL1        0.0948
     10 C         143.0688  142.0777  167.6773 C.ar    1  UNL1        0.0203
     11 C         142.6450  140.8425  168.4153 C.ar    1  UNL1        0.0028
     12 C         142.4984  139.5430  167.6805 C.ar    1  UNL1        0.0151
     13 C         142.7757  139.4788  166.2078 C.ar    1  UNL1        0.0635
     14 N         143.1996  140.7140  165.4698 N.ar    1  UNL1       -0.2482
     15 O         144.9663  144.0258  165.9300 O.co2   1  UNL1       -0.5430
     16 C         143.7700  143.2486  165.4666 C.2     1  UNL1        0.0905
     17 OXT       142.9976  143.7067  164.2651 O.co2   1  UNL1       -0.5430
     18 O         139.6300  138.2500  165.4867 O.3     1  UNL1       -0.4709
     19 C         138.4931  139.2163  165.6404 C.3     1  UNL1        0.2342
     20 C         138.7113  140.6781  165.3840 C.ar    1  UNL1        0.0487
     21 C         139.6210  141.4685  166.2770 C.ar    1  UNL1        0.0024
     22 C         139.8393  142.9303  166.0207 C.ar    1  UNL1        0.0113
     23 C         139.1478  143.6015  164.8712 C.ar    1  UNL1        0.0599
     24 CL        139.3660  145.0633  164.6149 Cl      1  UNL1       -0.0822
     25 C         138.2381  142.8111  163.9782 C.ar    1  UNL1        0.0408
     26 C         138.0199  141.3494  164.2346 C.ar    1  UNL1        0.1404
     27 F         137.1101  140.5589  163.3414 F       1  UNL1       -0.2044
@<TRIPOS>UNITY_ATOM_ATTR
17 1
charge -1
@<TRIPOS>BOND
     1    15    16   ar
     2    16    17   ar
     3    16     9    1
     4     9    10   ar
     5    10    11   ar
     6    11    12   ar
     7    12    13   ar
     8    13     8    1
     9     8     1    1
    10     1     2   ar
    11     2     3   ar
    12     3     4    1
    13     3     5   ar
    14     5     6   ar
    15     6     7   ar
    16     7    18    1
    17    18    19    1
    18    19    20    1
    19    20    21   ar
    20    21    22   ar
    21    22    23   ar
    22    23    24    1
    23    23    25   ar
    24    25    26   ar
    25    26    27    1
    26    13    14   ar
    27    14     9   ar
    28     7     1   ar
    29    26    20   ar
