@<TRIPOS>MOLECULE
*****
 28 30 0 0 0
SMALL
GASTEIGER

@<TRIPOS>ATOM
      1 C         143.9984  138.3495  161.9098 C.3     1  UNL1        0.0896
      2 N         143.8314  139.4431  162.9228 N.3     1  UNL1       -0.2715
      3 C         142.7751  139.3296  163.9817 C.3     1  UNL1        0.0725
      4 C         142.6081  140.4231  164.9948 C.3     1  UNL1        0.0238
      5 C         143.4974  141.6302  164.9489 C.3     1  UNL1        0.0489
      6 C         144.5536  141.7437  163.8900 C.3     1  UNL1        0.0238
      7 C         144.7207  140.6502  162.8770 C.3     1  UNL1        0.0725
      8 C         142.6474  141.9778  166.1350 C.ar    1  UNL1       -0.0203
      9 C         141.1608  142.1050  165.9809 C.ar    1  UNL1       -0.0033
     10 C         140.3108  142.4526  167.1669 C.ar    1  UNL1        0.0111
     11 C         140.9474  142.6730  168.5070 C.ar    1  UNL1        0.0577
     12 CL        140.0974  143.0206  169.6931 Cl      1  UNL1       -0.0822
     13 C         142.4340  142.5459  168.6612 C.ar    1  UNL1        0.0111
     14 C         143.2840  142.1982  167.4752 C.ar    1  UNL1       -0.0033
     15 C         144.0915  142.9580  165.3150 C.3     1  UNL1        0.1467
     16 O         144.4644  143.9349  164.2395 O.3     1  UNL1       -0.3470
     17 C         143.5871  145.1206  163.9662 C.3     1  UNL1        0.1875
     18 C         142.2603  144.9324  163.2923 C.ar    1  UNL1        0.0897
     19 C         141.0092  144.8333  164.1139 C.ar    1  UNL1        0.0212
     20 C         139.6824  144.6451  163.4399 C.ar    1  UNL1        0.0750
     21 C         139.6067  144.5561  161.9445 C.ar    1  UNL1        0.0346
     22 C         140.8579  144.6552  161.1229 C.ar    1  UNL1        0.1380
     23 CL        140.7822  144.5661  159.6275 Cl      1  UNL1       -0.0614
     24 N         142.1847  144.8433  161.7968 N.ar    1  UNL1       -0.2358
     25 C         138.4312  144.5460  164.2614 C.3     1  UNL1        0.4187
     26 F         137.1801  144.4469  165.0827 F       1  UNL1       -0.1659
     27 F         137.6874  144.0285  163.0659 F       1  UNL1       -0.1659
     28 F         139.1751  145.0635  165.4567 F       1  UNL1       -0.1659
@<TRIPOS>BOND
     1     1     2    1
     2     2     3    1
     3     3     4    1
     4     4     5    1
     5     5    15    1
     6    15    16    1
     7    16    17    1
     8    17    18    1
     9    18    19   ar
    10    19    20   ar
    11    20    25    1
    12    25    26    1
    13    25    27    1
    14    25    28    1
    15    20    21   ar
    16    21    22   ar
    17    22    23    1
    18    22    24   ar
    19     5     8    1
    20     8     9   ar
    21     9    10   ar
    22    10    11   ar
    23    11    12    1
    24    11    13   ar
    25    13    14   ar
    26     5     6    1
    27     6     7    1
    28     7     2    1
    29    24    18   ar
    30    14     8   ar
@<TRIPOS>MOLECULE
*****
 28 30 0 0 0
SMALL
GASTEIGER

@<TRIPOS>ATOM
      1 C         140.8891  141.1157  171.1129 C.3     1  UNL1        0.0896
      2 N         141.0431  140.6665  169.6900 N.3     1  UNL1       -0.2715
      3 C         139.8310  140.3177  168.8783 C.3     1  UNL1        0.0725
      4 C         139.9850  139.8685  167.4554 C.3     1  UNL1        0.0238
      5 C         141.3512  139.7681  166.8444 C.3     1  UNL1        0.0489
      6 C         142.5633  140.1169  167.6561 C.3     1  UNL1        0.0238
      7 C         142.4093  140.5661  169.0790 C.3     1  UNL1        0.0725
      8 C         140.5123  139.3318  165.6799 C.ar    1  UNL1       -0.0203
      9 C         139.1694  139.9579  165.4466 C.ar    1  UNL1       -0.0033
     10 C         138.3305  139.5217  164.2822 C.ar    1  UNL1        0.0111
     11 C         138.8346  138.4593  163.3510 C.ar    1  UNL1        0.0577
     12 CL        137.9957  138.0230  162.1865 Cl      1  UNL1       -0.0822
     13 C         140.1776  137.8331  163.5842 C.ar    1  UNL1        0.0111
     14 C         141.0164  138.2694  164.7487 C.ar    1  UNL1       -0.0033
     15 C         142.4261  139.5162  165.8288 C.3     1  UNL1        0.1467
     16 O         143.4962  140.5419  165.5993 O.3     1  UNL1       -0.3470
     17 C         143.3725  141.5135  164.4632 C.3     1  UNL1        0.1875
     18 C         142.0186  141.9914  164.0292 C.ar    1  UNL1        0.0897
     19 C         141.2666  142.9794  164.8709 C.ar    1  UNL1        0.0212
     20 C         139.9127  143.4573  164.4367 C.ar    1  UNL1        0.0750
     21 C         139.3107  142.9472  163.1611 C.ar    1  UNL1        0.0346
     22 C         140.0627  141.9592  162.3194 C.ar    1  UNL1        0.1380
     23 CL        139.4607  141.4491  161.0437 Cl      1  UNL1       -0.0614
     24 N         141.4166  141.4813  162.7534 N.ar    1  UNL1       -0.2358
     25 C         139.1606  144.4453  165.2784 C.3     1  UNL1        0.4187
     26 F         138.4085  145.4333  166.1199 F       1  UNL1       -0.1659
     27 F         138.6578  145.1202  164.0366 F       1  UNL1       -0.1659
     28 F         139.6634  143.7704  166.5200 F       1  UNL1       -0.1659
@<TRIPOS>BOND
     1     1     2    1
     2     2     3    1
     3     3     4    1
     4     4     5    1
     5     5    15    1
     6    15    16    1
     7    16    17    1
     8    17    18    1
     9    18    19   ar
    10    19    20   ar
    11    20    25    1
    12    25    26    1
    13    25    27    1
    14    25    28    1
    15    20    21   ar
    16    21    22   ar
    17    22    23    1
    18    22    24   ar
    19     5     8    1
    20     8     9   ar
    21     9    10   ar
    22    10    11   ar
    23    11    12    1
    24    11    13   ar
    25    13    14   ar
    26     5     6    1
    27     6     7    1
    28     7     2    1
    29    24    18   ar
    30    14     8   ar
@<TRIPOS>MOLECULE
*****
 28 30 0 0 0
SMALL
GASTEIGER

@<TRIPOS>ATOM
      1 C         144.4617  144.1456  162.5104 C.3     1  UNL1        0.0896
      2 N         144.0311  143.0399  163.4280 N.3     1  UNL1       -0.2715
      3 C         143.2116  143.3516  164.6450 C.3     1  UNL1        0.0725
      4 C         142.7810  142.2459  165.5627 C.3     1  UNL1        0.0238
      5 C         143.1701  140.8285  165.2633 C.3     1  UNL1        0.0489
      6 C         143.9897  140.5168  164.0464 C.3     1  UNL1        0.0238
      7 C         144.4202  141.6226  163.1287 C.3     1  UNL1        0.0725
      8 C         142.3917  140.6232  166.5291 C.ar    1  UNL1       -0.0203
      9 C         141.1301  141.3986  166.7679 C.ar    1  UNL1       -0.0033
     10 C         140.3517  141.1933  168.0335 C.ar    1  UNL1        0.0111
     11 C         140.8350  140.2125  169.0604 C.ar    1  UNL1        0.0577
     12 CL        140.0566  140.0072  170.3261 Cl      1  UNL1       -0.0822
     13 C         142.0966  139.4371  168.8217 C.ar    1  UNL1        0.0111
     14 C         142.8750  139.6424  167.5560 C.ar    1  UNL1       -0.0033
     15 C         143.2888  139.3398  165.4036 C.3     1  UNL1        0.1467
     16 O         143.1836  138.4616  164.1921 O.3     1  UNL1       -0.3470
     17 C         141.8511  137.9108  163.7784 C.3     1  UNL1        0.1875
     18 C         140.5885  138.5758  164.2406 C.ar    1  UNL1        0.0897
     19 C         139.7526  137.9372  165.3100 C.ar    1  UNL1        0.0212
     20 C         138.4900  138.6023  165.7722 C.ar    1  UNL1        0.0750
     21 C         138.0633  139.9059  165.1650 C.ar    1  UNL1        0.0346
     22 C         138.8993  140.5445  164.0956 C.ar    1  UNL1        0.1380
     23 CL        138.4726  141.8480  163.4885 Cl      1  UNL1       -0.0614
     24 N         140.1618  139.8794  163.6335 N.ar    1  UNL1       -0.2358
     25 C         137.6540  137.9638  166.8416 C.3     1  UNL1        0.4187
     26 F         136.8181  137.3253  167.9108 F       1  UNL1       -0.1659
     27 F         137.7638  136.6432  166.1387 F       1  UNL1       -0.1659
     28 F         137.5444  139.2844  167.5443 F       1  UNL1       -0.1659
@<TRIPOS>BOND
     1     1     2    1
     2     2     3    1
     3     3     4    1
     4     4     5    1
     5     5    15    1
     6    15    16    1
     7    16    17    1
     8    17    18    1
     9    18    19   ar
    10    19    20   ar
    11    20    25    1
    12    25    26    1
    13    25    27    1
    14    25    28    1
    15    20    21   ar
    16    21    22   ar
    17    22    23    1
    18    22    24   ar
    19     5     8    1
    20     8     9   ar
    21     9    10   ar
    22    10    11   ar
    23    11    12    1
    24    11    13   ar
    25    13    14   ar
    26     5     6    1
    27     6     7    1
    28     7     2    1
    29    24    18   ar
    30    14     8   ar
@<TRIPOS>MOLECULE
*****
 28 30 0 0 0
SMALL
GASTEIGER

@<TRIPOS>ATOM
      1 C         141.3994  140.9055  171.1464 C.3     1  UNL1        0.0896
      2 N         141.5166  141.3298  169.7124 N.3     1  UNL1       -0.2715
      3 C         140.3709  142.0269  169.0406 C.3     1  UNL1        0.0725
      4 C         140.4881  142.4512  167.6066 C.3     1  UNL1        0.0238
      5 C         141.7509  142.1785  166.8445 C.3     1  UNL1        0.0489
      6 C         142.8966  141.4814  167.5164 C.3     1  UNL1        0.0238
      7 C         142.7794  141.0571  168.9504 C.3     1  UNL1        0.0725
      8 C         140.9468  142.8635  165.7795 C.ar    1  UNL1       -0.0203
      9 C         139.4630  142.6557  165.7099 C.ar    1  UNL1       -0.0033
     10 C         138.6588  143.3406  164.6449 C.ar    1  UNL1        0.0111
     11 C         139.3387  144.2334  163.6495 C.ar    1  UNL1        0.0577
     12 CL        138.5346  144.9184  162.5845 Cl      1  UNL1       -0.0822
     13 C         140.8226  144.4412  163.7191 C.ar    1  UNL1        0.0111
     14 C         141.6267  143.7562  164.7841 C.ar    1  UNL1       -0.0033
     15 C         142.7346  142.1436  165.7126 C.3     1  UNL1        0.1467
     16 O         143.4447  140.8662  165.3752 O.3     1  UNL1       -0.3470
     17 C         142.9014  139.9661  164.3052 C.3     1  UNL1        0.1875
     18 C         141.4193  139.8413  164.1114 C.ar    1  UNL1        0.0897
     19 C         140.5918  139.0949  165.1156 C.ar    1  UNL1        0.0212
     20 C         139.1097  138.9701  164.9217 C.ar    1  UNL1        0.0750
     21 C         138.4549  139.5916  163.7238 C.ar    1  UNL1        0.0346
     22 C         139.2824  140.3380  162.7196 C.ar    1  UNL1        0.1380
     23 CL        138.6277  140.9595  161.5217 Cl      1  UNL1       -0.0614
     24 N         140.7646  140.4628  162.9134 N.ar    1  UNL1       -0.2358
     25 C         138.2821  138.2237  165.9258 C.3     1  UNL1        0.4187
     26 F         137.4546  137.4774  166.9299 F       1  UNL1       -0.1659
     27 F         138.8397  136.9260  165.4206 F       1  UNL1       -0.1659
     28 F         137.7246  139.5214  166.4309 F       1  UNL1       -0.1659
@<TRIPOS>BOND
     1     1     2    1
     2     2     3    1
     3     3     4    1
     4     4     5    1
     5     5    15    1
     6    15    16    1
     7    16    17    1
     8    17    18    1
     9    18    19   ar
    10    19    20   ar
    11    20    25    1
    12    25    26    1
    13    25    27    1
    14    25    28    1
    15    20    21   ar
    16    21    22   ar
    17    22    23    1
    18    22    24   ar
    19     5     8    1
    20     8     9   ar
    21     9    10   ar
    22    10    11   ar
    23    11    12    1
    24    11    13   ar
    25    13    14   ar
    26     5     6    1
    27     6     7    1
    28     7     2    1
    29    24    18   ar
    30    14     8   ar
@<TRIPOS>MOLECULE
*****
 28 30 0 0 0
SMALL
GASTEIGER

@<TRIPOS>ATOM
      1 C         145.1951  142.0098  162.4990 C.3     1  UNL1        0.0896
      2 N         144.0550  142.1404  163.4649 N.3     1  UNL1       -0.2715
      3 C         144.0260  141.3024  164.7086 C.3     1  UNL1        0.0725
      4 C         142.8858  141.4330  165.6746 C.3     1  UNL1        0.0238
      5 C         141.7747  142.4016  165.3967 C.3     1  UNL1        0.0489
      6 C         141.8037  143.2395  164.1530 C.3     1  UNL1        0.0238
      7 C         142.9438  143.1089  163.1871 C.3     1  UNL1        0.0725
      8 C         141.3029  141.8312  166.7014 C.ar    1  UNL1       -0.0203
      9 C         140.7828  142.7419  167.7738 C.ar    1  UNL1       -0.0033
     10 C         140.3110  142.1716  169.0784 C.ar    1  UNL1        0.0111
     11 C         140.3593  140.6905  169.3106 C.ar    1  UNL1        0.0577
     12 CL        139.8875  140.1201  170.6153 Cl      1  UNL1       -0.0822
     13 C         140.8793  139.7797  168.2383 C.ar    1  UNL1        0.0111
     14 C         141.3511  140.3501  166.9336 C.ar    1  UNL1       -0.0033
     15 C         140.4996  143.1721  165.5720 C.3     1  UNL1        0.1467
     16 O         139.5391  143.3029  164.4274 O.3     1  UNL1       -0.3470
     17 C         138.4301  142.3066  164.2613 C.3     1  UNL1        0.1875
     18 C         138.7149  140.8393  164.3879 C.ar    1  UNL1        0.0897
     19 C         138.0728  140.0426  165.4847 C.ar    1  UNL1        0.0212
     20 C         138.3577  138.5753  165.6112 C.ar    1  UNL1        0.0750
     21 C         139.2846  137.9048  164.6411 C.ar    1  UNL1        0.0346
     22 C         139.9267  138.7016  163.5443 C.ar    1  UNL1        0.1380
     23 CL        140.8536  138.0311  162.5742 Cl      1  UNL1       -0.0614
     24 N         139.6419  140.1688  163.4177 N.ar    1  UNL1       -0.2358
     25 C         137.7156  137.7785  166.7081 C.3     1  UNL1        0.4187
     26 F         137.0736  136.9818  167.8048 F       1  UNL1       -0.1659
     27 F         137.3660  139.0484  167.4259 F       1  UNL1       -0.1659
     28 F         138.0653  136.5087  165.9902 F       1  UNL1       -0.1659
@<TRIPOS>BOND
     1     1     2    1
     2     2     3    1
     3     3     4    1
     4     4     5    1
     5     5    15    1
     6    15    16    1
     7    16    17    1
     8    17    18    1
     9    18    19   ar
    10    19    20   ar
    11    20    25    1
    12    25    26    1
    13    25    27    1
    14    25    28    1
    15    20    21   ar
    16    21    22   ar
    17    22    23    1
    18    22    24   ar
    19     5     8    1
    20     8     9   ar
    21     9    10   ar
    22    10    11   ar
    23    11    12    1
    24    11    13   ar
    25    13    14   ar
    26     5     6    1
    27     6     7    1
    28     7     2    1
    29    24    18   ar
    30    14     8   ar
@<TRIPOS>MOLECULE
*****
 28 30 0 0 0
SMALL
GASTEIGER

@<TRIPOS>ATOM
      1 C         142.2187  144.9830  157.3285 C.3     1  UNL1        0.0896
      2 N         141.8441  144.7248  158.7578 N.3     1  UNL1       -0.2715
      3 C         142.5003  143.6087  159.5153 C.3     1  UNL1        0.0725
      4 C         142.1256  143.3505  160.9446 C.3     1  UNL1        0.0238
      5 C         141.0948  144.2084  161.6165 C.3     1  UNL1        0.0489
      6 C         140.4387  145.3245  160.8590 C.3     1  UNL1        0.0238
      7 C         140.8133  145.5827  159.4297 C.3     1  UNL1        0.0725
      8 C         141.4339  143.2780  162.7432 C.ar    1  UNL1       -0.0203
      9 C         141.4572  141.7963  162.5112 C.ar    1  UNL1       -0.0033
     10 C         141.7963  140.8659  163.6378 C.ar    1  UNL1        0.0111
     11 C         142.1121  141.4173  164.9965 C.ar    1  UNL1        0.0577
     12 CL        142.4512  140.4870  166.1233 Cl      1  UNL1       -0.0822
     13 C         142.0888  142.8991  165.2287 C.ar    1  UNL1        0.0111
     14 C         141.7497  143.8295  164.1020 C.ar    1  UNL1       -0.0033
     15 C         140.1818  144.7432  162.6797 C.3     1  UNL1        0.1467
     16 O         138.7375  145.0014  162.3676 O.3     1  UNL1       -0.3470
     17 C         137.6676  144.2093  163.0588 C.3     1  UNL1        0.1875
     18 C         137.8078  142.7225  163.1994 C.ar    1  UNL1        0.0897
     19 C         138.1603  142.1248  164.5293 C.ar    1  UNL1        0.0212
     20 C         138.3004  140.6380  164.6697 C.ar    1  UNL1        0.0750
     21 C         138.0881  139.7489  163.4805 C.ar    1  UNL1        0.0346
     22 C         137.7356  140.3466  162.1506 C.ar    1  UNL1        0.1380
     23 CL        137.5233  139.4575  160.9614 Cl      1  UNL1       -0.0614
     24 N         137.5954  141.8334  162.0100 N.ar    1  UNL1       -0.2358
     25 C         138.6529  140.0402  165.9996 C.3     1  UNL1        0.4187
     26 F         139.0054  139.4424  167.3294 F       1  UNL1       -0.1659
     27 F         138.0348  138.7398  165.5788 F       1  UNL1       -0.1659
     28 F         139.2710  141.3406  166.4203 F       1  UNL1       -0.1659
@<TRIPOS>BOND
     1     1     2    1
     2     2     3    1
     3     3     4    1
     4     4     5    1
     5     5    15    1
     6    15    16    1
     7    16    17    1
     8    17    18    1
     9    18    19   ar
    10    19    20   ar
    11    20    25    1
    12    25    26    1
    13    25    27    1
    14    25    28    1
    15    20    21   ar
    16    21    22   ar
    17    22    23    1
    18    22    24   ar
    19     5     8    1
    20     8     9   ar
    21     9    10   ar
    22    10    11   ar
    23    11    12    1
    24    11    13   ar
    25    13    14   ar
    26     5     6    1
    27     6     7    1
    28     7     2    1
    29    24    18   ar
    30    14     8   ar
@<TRIPOS>MOLECULE
*****
 28 30 0 0 0
SMALL
GASTEIGER

@<TRIPOS>ATOM
      1 C         139.6114  146.2782  161.7428 C.3     1  UNL1        0.0896
      2 N         140.4045  145.3124  162.5724 N.3     1  UNL1       -0.2715
      3 C         139.7668  144.6343  163.7485 C.3     1  UNL1        0.0725
      4 C         140.5598  143.6685  164.5782 C.3     1  UNL1        0.0238
      5 C         141.9906  143.3808  164.2316 C.3     1  UNL1        0.0489
      6 C         142.6283  144.0589  163.0555 C.3     1  UNL1        0.0238
      7 C         141.8352  145.0247  162.2258 C.3     1  UNL1        0.0725
      8 C         141.8304  142.4960  165.4323 C.ar    1  UNL1       -0.0203
      9 C         142.9198  142.4229  166.4607 C.ar    1  UNL1       -0.0033
     10 C         142.7598  141.5382  167.6614 C.ar    1  UNL1        0.0111
     11 C         141.5102  140.7265  167.8335 C.ar    1  UNL1        0.0577
     12 CL        141.3500  139.8417  169.0342 Cl      1  UNL1       -0.0822
     13 C         140.4207  140.7995  166.8051 C.ar    1  UNL1        0.0111
     14 C         140.5809  141.6843  165.6044 C.ar    1  UNL1       -0.0033
     15 C         143.3658  142.7858  164.3020 C.3     1  UNL1        0.1467
     16 O         144.0580  142.3464  163.0460 O.3     1  UNL1       -0.3470
     17 C         144.2268  140.8846  162.7547 C.3     1  UNL1        0.1875
     18 C         143.4774  139.8674  163.5632 C.ar    1  UNL1        0.0897
     19 C         142.1380  139.3781  163.0977 C.ar    1  UNL1        0.0212
     20 C         141.3887  138.3609  163.9062 C.ar    1  UNL1        0.0750
     21 C         141.9787  137.8330  165.1803 C.ar    1  UNL1        0.0346
     22 C         143.3180  138.3223  165.6459 C.ar    1  UNL1        0.1380
     23 CL        143.9080  137.7944  166.9199 Cl      1  UNL1       -0.0614
     24 N         144.0674  139.3395  164.8373 N.ar    1  UNL1       -0.2358
     25 C         140.0493  137.8716  163.4407 C.3     1  UNL1        0.4187
     26 F         138.7100  137.3822  162.9752 F       1  UNL1       -0.1659
     27 F         140.6757  137.3587  162.1779 F       1  UNL1       -0.1659
     28 F         139.4231  138.3845  164.7035 F       1  UNL1       -0.1659
@<TRIPOS>BOND
     1     1     2    1
     2     2     3    1
     3     3     4    1
     4     4     5    1
     5     5    15    1
     6    15    16    1
     7    16    17    1
     8    17    18    1
     9    18    19   ar
    10    19    20   ar
    11    20    25    1
    12    25    26    1
    13    25    27    1
    14    25    28    1
    15    20    21   ar
    16    21    22   ar
    17    22    23    1
    18    22    24   ar
    19     5     8    1
    20     8     9   ar
    21     9    10   ar
    22    10    11   ar
    23    11    12    1
    24    11    13   ar
    25    13    14   ar
    26     5     6    1
    27     6     7    1
    28     7     2    1
    29    24    18   ar
    30    14     8   ar
@<TRIPOS>MOLECULE
*****
 28 30 0 0 0
SMALL
GASTEIGER

@<TRIPOS>ATOM
      1 C         138.1964  144.0358  163.0804 C.3     1  UNL1        0.0896
      2 N         138.5380  142.9530  164.0606 N.3     1  UNL1       -0.2715
      3 C         139.6202  143.1740  165.0754 C.3     1  UNL1        0.0725
      4 C         139.9618  142.0912  166.0557 C.3     1  UNL1        0.0238
      5 C         139.2210  140.7873  166.0211 C.3     1  UNL1        0.0489
      6 C         138.1388  140.5663  165.0064 C.3     1  UNL1        0.0238
      7 C         137.7972  141.6491  164.0261 C.3     1  UNL1        0.0725
      8 C         140.1592  140.5238  167.1615 C.ar    1  UNL1       -0.0203
      9 C         139.6150  140.1839  168.5173 C.ar    1  UNL1       -0.0033
     10 C         140.5531  139.9203  169.6576 C.ar    1  UNL1        0.0111
     11 C         142.0356  139.9966  169.4421 C.ar    1  UNL1        0.0577
     12 CL        142.9738  139.7331  170.5824 Cl      1  UNL1       -0.0822
     13 C         142.5799  140.3365  168.0863 C.ar    1  UNL1        0.0111
     14 C         141.6417  140.6001  166.9459 C.ar    1  UNL1       -0.0033
     15 C         138.8061  139.3919  166.3826 C.3     1  UNL1        0.1467
     16 O         138.4163  138.4228  165.3061 O.3     1  UNL1       -0.3470
     17 C         139.4101  137.4157  164.8079 C.3     1  UNL1        0.1875
     18 C         140.5162  137.8443  163.8899 C.ar    1  UNL1        0.0897
     19 C         141.8427  138.2573  164.4556 C.ar    1  UNL1        0.0212
     20 C         142.9488  138.6859  163.5376 C.ar    1  UNL1        0.0750
     21 C         142.7285  138.7017  162.0540 C.ar    1  UNL1        0.0346
     22 C         141.4020  138.2888  161.4883 C.ar    1  UNL1        0.1380
     23 CL        141.1818  138.3045  160.0047 Cl      1  UNL1       -0.0614
     24 N         140.2959  137.8601  162.4062 N.ar    1  UNL1       -0.2358
     25 C         144.2754  139.0988  164.1033 C.3     1  UNL1        0.4187
     26 F         145.6018  139.5117  164.6688 F       1  UNL1       -0.1659
     27 F         144.6560  139.6906  162.7785 F       1  UNL1       -0.1659
     28 F         143.8947  138.5070  165.4280 F       1  UNL1       -0.1659
@<TRIPOS>BOND
     1     1     2    1
     2     2     3    1
     3     3     4    1
     4     4     5    1
     5     5    15    1
     6    15    16    1
     7    16    17    1
     8    17    18    1
     9    18    19   ar
    10    19    20   ar
    11    20    25    1
    12    25    26    1
    13    25    27    1
    14    25    28    1
    15    20    21   ar
    16    21    22   ar
    17    22    23    1
    18    22    24   ar
    19     5     8    1
    20     8     9   ar
    21     9    10   ar
    22    10    11   ar
    23    11    12    1
    24    11    13   ar
    25    13    14   ar
    26     5     6    1
    27     6     7    1
    28     7     2    1
    29    24    18   ar
    30    14     8   ar
@<TRIPOS>MOLECULE
*****
 28 30 0 0 0
SMALL
GASTEIGER

@<TRIPOS>ATOM
      1 C         139.7564  142.4444  170.7983 C.3     1  UNL1        0.0896
      2 N         140.4102  141.8308  169.5958 N.3     1  UNL1       -0.2715
      3 C         141.4841  142.5786  168.8627 C.3     1  UNL1        0.0725
      4 C         142.1380  141.9650  167.6602 C.3     1  UNL1        0.0238
      5 C         141.7180  140.6037  167.1908 C.3     1  UNL1        0.0489
      6 C         140.6441  139.8559  167.9240 C.3     1  UNL1        0.0238
      7 C         139.9902  140.4695  169.1265 C.3     1  UNL1        0.0725
      8 C         142.7733  140.9164  166.1717 C.ar    1  UNL1       -0.0203
      9 C         143.1184  142.3431  165.8629 C.ar    1  UNL1       -0.0033
     10 C         144.1737  142.6558  164.8439 C.ar    1  UNL1        0.0111
     11 C         144.8839  141.5418  164.1336 C.ar    1  UNL1        0.0577
     12 CL        145.9393  141.8545  163.1145 Cl      1  UNL1       -0.0822
     13 C         144.5389  140.1150  164.4423 C.ar    1  UNL1        0.0111
     14 C         143.4835  139.8023  165.4614 C.ar    1  UNL1       -0.0033
     15 C         141.6644  139.3509  166.3675 C.3     1  UNL1        0.1467
     16 O         140.3434  138.8189  165.8965 O.3     1  UNL1       -0.3470
     17 C         139.7131  139.3709  164.6523 C.3     1  UNL1        0.1875
     18 C         139.9864  140.7864  164.2377 C.ar    1  UNL1        0.0897
     19 C         139.3454  141.9220  164.9790 C.ar    1  UNL1        0.0212
     20 C         139.6186  143.3374  164.5644 C.ar    1  UNL1        0.0750
     21 C         140.5328  143.6172  163.4086 C.ar    1  UNL1        0.0346
     22 C         141.1739  142.4816  162.6673 C.ar    1  UNL1        0.1380
     23 CL        142.0881  142.7614  161.5115 Cl      1  UNL1       -0.0614
     24 N         140.9006  141.0661  163.0819 N.ar    1  UNL1       -0.2358
     25 C         138.9776  144.4732  165.3056 C.3     1  UNL1        0.4187
     26 F         138.3367  145.6088  166.0469 F       1  UNL1       -0.1659
     27 F         139.5572  143.9612  166.5910 F       1  UNL1       -0.1659
     28 F         138.3982  144.9850  164.0202 F       1  UNL1       -0.1659
@<TRIPOS>BOND
     1     1     2    1
     2     2     3    1
     3     3     4    1
     4     4     5    1
     5     5    15    1
     6    15    16    1
     7    16    17    1
     8    17    18    1
     9    18    19   ar
    10    19    20   ar
    11    20    25    1
    12    25    26    1
    13    25    27    1
    14    25    28    1
    15    20    21   ar
    16    21    22   ar
    17    22    23    1
    18    22    24   ar
    19     5     8    1
    20     8     9   ar
    21     9    10   ar
    22    10    11   ar
    23    11    12    1
    24    11    13   ar
    25    13    14   ar
    26     5     6    1
    27     6     7    1
    28     7     2    1
    29    24    18   ar
    30    14     8   ar
