@<TRIPOS>MOLECULE
*****
 52 56 0 0 0
SMALL
GASTEIGER

@<TRIPOS>ATOM
      1 C         140.9185  138.7628  158.0797 C.ar    1  UNL1        0.0199
      2 C         140.8558  137.5194  157.2430 C.ar    1  UNL1        0.0099
      3 C         142.0606  137.0760  156.4673 C.ar    1  UNL1        0.1244
      4 C         143.3281  137.8759  156.5282 C.ar    1  UNL1        0.2285
      5 N         143.3907  139.1193  157.3649 N.ar    1  UNL1       -0.2144
      6 C         142.1859  139.5627  158.1407 C.ar    1  UNL1        0.0823
      7 C         138.5455  139.8190  158.1413 C.ar    1  UNL1        0.2249
      8 N         137.3408  140.2624  158.9171 N.ar    1  UNL1       -0.2101
      9 C         137.3041  140.0931  160.4071 C.ar    1  UNL1        0.1020
     10 C         138.4722  139.4803  161.1213 C.ar    1  UNL1        0.0191
     11 C         139.6769  139.0369  160.3455 C.ar    1  UNL1        0.0062
     12 C         139.7136  139.2063  158.8555 C.ar    1  UNL1        0.0544
     13 C         138.4355  139.3110  162.6112 C.ar    1  UNL1       -0.0025
     14 C         138.8459  138.0069  163.2282 C.ar    1  UNL1       -0.0002
     15 C         138.8092  137.8376  164.7181 C.ar    1  UNL1        0.0011
     16 C         138.3621  138.9724  165.5911 C.ar    1  UNL1        0.0137
     17 C         137.9517  140.2765  164.9742 C.ar    1  UNL1       -0.0031
     18 C         137.9884  140.4459  163.4842 C.ar    1  UNL1       -0.0218
     19 C         137.5779  141.7501  162.8673 C.3     1  UNL1        0.0310
     20 C         138.3254  138.8031  167.0811 C.2     1  UNL1        0.0729
     21 O         139.3173  139.5266  167.9428 O.co2   1  UNL1       -0.5446
     22 O         137.2968  137.9103  167.7094 O.co2   1  UNL1       -0.5446
     23 C         138.4717  141.3576  156.0492 C.3     1  UNL1        0.2542
     24 O         138.5822  139.9883  156.6514 O.3     1  UNL1       -0.4561
     25 C         141.9979  135.8326  155.6306 C.3     1  UNL1        0.4229
     26 F         141.9353  134.5892  154.7939 F       1  UNL1       -0.1657
     27 F         141.4852  136.6373  154.4732 F       1  UNL1       -0.1657
     28 F         142.5107  135.0279  156.7880 F       1  UNL1       -0.1657
     29 O         144.5328  137.4324  155.7525 O.3     1  UNL1       -0.4562
     30 C         145.1869  138.3706  154.7819 C.3     1  UNL1        0.2542
     31 C         142.2485  140.8061  158.9774 C.3     1  UNL1        0.1427
     32 N         142.4708  140.7038  160.4574 N.am    1  UNL1       -0.2380
     33 C         143.4560  139.8023  161.1406 C.2     1  UNL1        0.4055
     34 O         144.3917  138.8449  160.4640 O.2     1  UNL1       -0.2262
     35 O         143.3411  140.0263  162.6194 O.3     1  UNL1       -0.4320
     36 C         142.2849  141.0663  162.8500 C.3     1  UNL1        0.2107
     37 C         141.7471  141.4849  161.5138 C.3     1  UNL1        0.1233
     38 C         140.6740  142.5056  161.2757 C.3     1  UNL1        0.0258
     39 C         141.8440  141.5947  164.1827 C.ar    1  UNL1        0.0189
     40 C         140.7954  142.6648  164.2557 C.ar    1  UNL1        0.0031
     41 C         140.3545  143.1932  165.5884 C.ar    1  UNL1        0.0712
     42 C         140.9622  142.6516  166.8483 C.ar    1  UNL1        0.0077
     43 C         142.0109  141.5815  166.7754 C.ar    1  UNL1        0.0712
     44 C         142.4518  141.0531  165.4426 C.ar    1  UNL1        0.0031
     45 C         139.3059  144.2633  165.6613 C.3     1  UNL1        0.4186
     46 F         138.2573  145.3334  165.7342 F       1  UNL1       -0.1659
     47 F         139.2191  144.2803  164.1639 F       1  UNL1       -0.1659
     48 F         139.3927  144.2464  167.1588 F       1  UNL1       -0.1659
     49 C         142.6186  141.0399  168.0353 C.3     1  UNL1        0.4186
     50 F         143.2263  140.4983  169.2952 F       1  UNL1       -0.1659
     51 F         142.4705  139.6440  167.5067 F       1  UNL1       -0.1659
     52 F         142.7668  142.4358  168.5639 F       1  UNL1       -0.1659
@<TRIPOS>UNITY_ATOM_ATTR
21 1
charge -1
@<TRIPOS>BOND
     1    23    24    1
     2    24     7    1
     3     7     8   ar
     4     8     9   ar
     5     9    10   ar
     6    10    13    1
     7    13    14   ar
     8    14    15   ar
     9    15    16   ar
    10    16    20    1
    11    20    21   ar
    12    20    22   ar
    13    16    17   ar
    14    17    18   ar
    15    18    19    1
    16    10    11   ar
    17    11    12   ar
    18    12     1    1
    19     1     2   ar
    20     2     3   ar
    21     3    25    1
    22    25    26    1
    23    25    27    1
    24    25    28    1
    25     3     4   ar
    26     4    29    1
    27    29    30    1
    28     4     5   ar
    29     5     6   ar
    30     6    31    1
    31    31    32    1
    32    32    33   am
    33    33    34    2
    34    33    35    1
    35    35    36    1
    36    36    39    1
    37    39    40   ar
    38    40    41   ar
    39    41    45    1
    40    45    46    1
    41    45    47    1
    42    45    48    1
    43    41    42   ar
    44    42    43   ar
    45    43    49    1
    46    49    50    1
    47    49    51    1
    48    49    52    1
    49    43    44   ar
    50    36    37    1
    51    37    38    1
    52    12     7   ar
    53     6     1   ar
    54    37    32    1
    55    18    13   ar
    56    44    39   ar
@<TRIPOS>MOLECULE
*****
 52 56 0 0 0
SMALL
GASTEIGER

@<TRIPOS>ATOM
      1 C         140.9476  138.7749  158.0690 C.ar    1  UNL1        0.0199
      2 C         140.9018  137.5366  157.2238 C.ar    1  UNL1        0.0099
      3 C         142.1154  137.1094  156.4528 C.ar    1  UNL1        0.1244
      4 C         143.3750  137.9206  156.5269 C.ar    1  UNL1        0.2285
      5 N         143.4208  139.1590  157.3721 N.ar    1  UNL1       -0.2144
      6 C         142.2071  139.5861  158.1431 C.ar    1  UNL1        0.0823
      7 C         138.5588  139.7952  158.1208 C.ar    1  UNL1        0.2249
      8 N         137.3451  140.2223  158.8919 N.ar    1  UNL1       -0.2101
      9 C         137.3065  140.0563  160.3822 C.ar    1  UNL1        0.1020
     10 C         138.4816  139.4631  161.1014 C.ar    1  UNL1        0.0191
     11 C         139.6953  139.0360  160.3303 C.ar    1  UNL1        0.0062
     12 C         139.7339  139.2021  158.8400 C.ar    1  UNL1        0.0544
     13 C         138.4431  139.2971  162.5917 C.ar    1  UNL1       -0.0025
     14 C         138.8560  137.9955  163.2122 C.ar    1  UNL1       -0.0002
     15 C         138.8175  137.8295  164.7025 C.ar    1  UNL1        0.0011
     16 C         138.3659  138.9651  165.5722 C.ar    1  UNL1        0.0137
     17 C         137.9529  140.2667  164.9517 C.ar    1  UNL1       -0.0031
     18 C         137.9915  140.4327  163.4614 C.ar    1  UNL1       -0.0218
     19 C         137.5785  141.7344  162.8408 C.3     1  UNL1        0.0310
     20 C         138.3273  138.7990  167.0625 C.2     1  UNL1        0.0729
     21 O         137.3152  137.8867  167.6896 O.co2   1  UNL1       -0.5446
     22 O         139.3009  139.5453  167.9257 O.co2   1  UNL1       -0.5446
     23 C         137.8169  141.0636  155.9783 C.3     1  UNL1        0.2542
     24 O         138.5973  139.9612  156.6305 O.3     1  UNL1       -0.4561
     25 C         142.0696  135.8710  155.6076 C.3     1  UNL1        0.4229
     26 F         142.0237  134.6327  154.7624 F       1  UNL1       -0.1657
     27 F         141.5784  136.6824  154.4455 F       1  UNL1       -0.1657
     28 F         142.5607  135.0597  156.7697 F       1  UNL1       -0.1657
     29 O         144.5887  137.4935  155.7559 O.3     1  UNL1       -0.4562
     30 C         145.2048  138.4224  154.7521 C.3     1  UNL1        0.2542
     31 C         142.2529  140.8245  158.9883 C.3     1  UNL1        0.1427
     32 N         142.4756  140.7150  160.4677 N.am    1  UNL1       -0.2380
     33 C         143.4628  139.8123  161.1462 C.2     1  UNL1        0.4055
     34 O         144.4007  138.8605  160.4646 O.2     1  UNL1       -0.2262
     35 O         143.3475  140.0284  162.6262 O.3     1  UNL1       -0.4320
     36 C         142.2889  141.0647  162.8622 C.3     1  UNL1        0.2107
     37 C         141.7501  141.4891  161.5282 C.3     1  UNL1        0.1233
     38 C         140.6747  142.5084  161.2954 C.3     1  UNL1        0.0258
     39 C         141.8469  141.5852  164.1976 C.ar    1  UNL1        0.0189
     40 C         142.4455  141.0284  165.4553 C.ar    1  UNL1        0.0031
     41 C         142.0035  141.5489  166.7907 C.ar    1  UNL1        0.0712
     42 C         140.9628  142.6263  166.8687 C.ar    1  UNL1        0.0077
     43 C         140.3641  143.1833  165.6111 C.ar    1  UNL1        0.0712
     44 C         140.8062  142.6626  164.2756 C.ar    1  UNL1        0.0031
     45 C         142.6022  140.9921  168.0483 C.3     1  UNL1        0.4186
     46 F         143.2008  140.4352  169.3059 F       1  UNL1       -0.1659
     47 F         142.5171  139.6082  167.4760 F       1  UNL1       -0.1659
     48 F         142.6872  142.3760  168.6207 F       1  UNL1       -0.1659
     49 C         139.3234  144.2607  165.6890 C.3     1  UNL1        0.4186
     50 F         138.2827  145.3381  165.7670 F       1  UNL1       -0.1659
     51 F         139.2139  144.2631  164.1930 F       1  UNL1       -0.1659
     52 F         139.4330  144.2582  167.1850 F       1  UNL1       -0.1659
@<TRIPOS>UNITY_ATOM_ATTR
21 1
charge -1
@<TRIPOS>BOND
     1    23    24    1
     2    24     7    1
     3     7     8   ar
     4     8     9   ar
     5     9    10   ar
     6    10    13    1
     7    13    14   ar
     8    14    15   ar
     9    15    16   ar
    10    16    20    1
    11    20    21   ar
    12    20    22   ar
    13    16    17   ar
    14    17    18   ar
    15    18    19    1
    16    10    11   ar
    17    11    12   ar
    18    12     1    1
    19     1     2   ar
    20     2     3   ar
    21     3    25    1
    22    25    26    1
    23    25    27    1
    24    25    28    1
    25     3     4   ar
    26     4    29    1
    27    29    30    1
    28     4     5   ar
    29     5     6   ar
    30     6    31    1
    31    31    32    1
    32    32    33   am
    33    33    34    2
    34    33    35    1
    35    35    36    1
    36    36    39    1
    37    39    40   ar
    38    40    41   ar
    39    41    45    1
    40    45    46    1
    41    45    47    1
    42    45    48    1
    43    41    42   ar
    44    42    43   ar
    45    43    49    1
    46    49    50    1
    47    49    51    1
    48    49    52    1
    49    43    44   ar
    50    36    37    1
    51    37    38    1
    52    12     7   ar
    53     6     1   ar
    54    37    32    1
    55    18    13   ar
    56    44    39   ar
@<TRIPOS>MOLECULE
*****
 52 56 0 0 0
SMALL
GASTEIGER

@<TRIPOS>ATOM
      1 C         140.4195  142.2570  158.8779 C.ar    1  UNL1        0.0199
      2 C         139.4826  142.2121  157.7074 C.ar    1  UNL1        0.0099
      3 C         139.1841  143.4641  156.9372 C.ar    1  UNL1        0.1244
      4 C         139.8225  144.7612  157.3375 C.ar    1  UNL1        0.2285
      5 N         140.7594  144.8061  158.5080 N.ar    1  UNL1       -0.2144
      6 C         141.0579  143.5540  159.2783 C.ar    1  UNL1        0.0823
      7 C         141.6306  139.9662  159.0665 C.ar    1  UNL1        0.2249
      8 N         141.9290  138.7141  159.8367 N.ar    1  UNL1       -0.2101
      9 C         141.3150  138.5008  161.1886 C.ar    1  UNL1        0.1020
     10 C         140.4025  139.5396  161.7702 C.ar    1  UNL1        0.0191
     11 C         140.1041  140.7916  161.0000 C.ar    1  UNL1        0.0062
     12 C         140.7181  141.0049  159.6482 C.ar    1  UNL1        0.0544
     13 C         139.7885  139.3262  163.1220 C.ar    1  UNL1       -0.0025
     14 C         138.7480  140.2788  163.6319 C.ar    1  UNL1       -0.0002
     15 C         138.1340  140.0655  164.9838 C.ar    1  UNL1        0.0011
     16 C         138.5605  138.8996  165.8257 C.ar    1  UNL1        0.0137
     17 C         139.6010  137.9471  165.3158 C.ar    1  UNL1       -0.0031
     18 C         140.2150  138.1604  163.9640 C.ar    1  UNL1       -0.0218
     19 C         141.2555  137.2078  163.4541 C.3     1  UNL1        0.0310
     20 C         137.9465  138.6863  167.1776 C.2     1  UNL1        0.0729
     21 O         136.7999  137.7327  167.3385 O.co2   1  UNL1       -0.5446
     22 O         138.4790  139.4266  168.3685 O.co2   1  UNL1       -0.5446
     23 C         143.5817  140.8487  157.5954 C.3     1  UNL1        0.2542
     24 O         142.2446  140.1795  157.7147 O.3     1  UNL1       -0.4561
     25 C         138.2471  143.4192  155.7667 C.3     1  UNL1        0.4229
     26 F         137.3102  143.3743  154.5962 F       1  UNL1       -0.1657
     27 F         139.4165  143.4703  154.8287 F       1  UNL1       -0.1657
     28 F         137.0777  143.3680  156.7047 F       1  UNL1       -0.1657
     29 O         139.5239  146.0132  156.5673 O.3     1  UNL1       -0.4562
     30 C         140.4944  146.5091  155.5367 C.3     1  UNL1        0.2542
     31 C         141.9949  143.5989  160.4488 C.3     1  UNL1        0.1427
     32 N         141.4577  143.4813  161.8444 N.am    1  UNL1       -0.2380
     33 C         140.2829  144.2283  162.4027 C.2     1  UNL1        0.4055
     34 O         139.4390  145.2242  161.6637 O.2     1  UNL1       -0.2262
     35 O         140.1001  143.8047  163.8301 O.3     1  UNL1       -0.4320
     36 C         141.1619  142.7958  164.1538 C.3     1  UNL1        0.2107
     37 C         142.0009  142.5959  162.9265 C.3     1  UNL1        0.1233
     38 C         143.1768  141.6728  162.8031 C.3     1  UNL1        0.0258
     39 C         141.3514  142.1077  165.4730 C.ar    1  UNL1        0.0189
     40 C         142.1404  140.8341  165.5482 C.ar    1  UNL1        0.0031
     41 C         142.3299  140.1460  166.8674 C.ar    1  UNL1        0.0712
     42 C         141.7305  140.7313  168.1116 C.ar    1  UNL1        0.0077
     43 C         140.9414  142.0049  168.0365 C.ar    1  UNL1        0.0712
     44 C         140.7520  142.6930  166.7172 C.ar    1  UNL1        0.0031
     45 C         143.1189  138.8725  166.9425 C.3     1  UNL1        0.4186
     46 F         143.9079  137.5990  167.0176 F       1  UNL1       -0.1659
     47 F         143.3688  138.9402  165.4651 F       1  UNL1       -0.1659
     48 F         142.8691  138.8048  168.4201 F       1  UNL1       -0.1659
     49 C         140.3420  142.5903  169.2807 C.3     1  UNL1        0.4186
     50 F         139.7425  143.1756  170.5249 F       1  UNL1       -0.1659
     51 F         140.6484  141.3240  170.0241 F       1  UNL1       -0.1659
     52 F         140.0355  143.8565  168.5373 F       1  UNL1       -0.1659
@<TRIPOS>UNITY_ATOM_ATTR
21 1
charge -1
@<TRIPOS>BOND
     1    23    24    1
     2    24     7    1
     3     7     8   ar
     4     8     9   ar
     5     9    10   ar
     6    10    13    1
     7    13    14   ar
     8    14    15   ar
     9    15    16   ar
    10    16    20    1
    11    20    21   ar
    12    20    22   ar
    13    16    17   ar
    14    17    18   ar
    15    18    19    1
    16    10    11   ar
    17    11    12   ar
    18    12     1    1
    19     1     2   ar
    20     2     3   ar
    21     3    25    1
    22    25    26    1
    23    25    27    1
    24    25    28    1
    25     3     4   ar
    26     4    29    1
    27    29    30    1
    28     4     5   ar
    29     5     6   ar
    30     6    31    1
    31    31    32    1
    32    32    33   am
    33    33    34    2
    34    33    35    1
    35    35    36    1
    36    36    39    1
    37    39    40   ar
    38    40    41   ar
    39    41    45    1
    40    45    46    1
    41    45    47    1
    42    45    48    1
    43    41    42   ar
    44    42    43   ar
    45    43    49    1
    46    49    50    1
    47    49    51    1
    48    49    52    1
    49    43    44   ar
    50    36    37    1
    51    37    38    1
    52    12     7   ar
    53     6     1   ar
    54    37    32    1
    55    18    13   ar
    56    44    39   ar
@<TRIPOS>MOLECULE
*****
 52 56 0 0 0
SMALL
GASTEIGER

@<TRIPOS>ATOM
      1 C         140.6027  142.4052  159.1290 C.ar    1  UNL1        0.0199
      2 C         139.7190  142.3002  157.9214 C.ar    1  UNL1        0.0099
      3 C         139.3835  143.5285  157.1286 C.ar    1  UNL1        0.1244
      4 C         139.9316  144.8619  157.5432 C.ar    1  UNL1        0.2285
      5 N         140.8152  144.9668  158.7508 N.ar    1  UNL1       -0.2144
      6 C         141.1508  143.7384  159.5436 C.ar    1  UNL1        0.0823
      7 C         141.9520  140.2017  159.4010 C.ar    1  UNL1        0.2249
      8 N         142.2875  138.9734  160.1939 N.ar    1  UNL1       -0.2101
      9 C         141.6092  138.7202  161.5076 C.ar    1  UNL1        0.1020
     10 C         140.5953  139.6953  162.0284 C.ar    1  UNL1        0.0191
     11 C         140.2598  140.9236  161.2355 C.ar    1  UNL1        0.0062
     12 C         140.9382  141.1768  159.9218 C.ar    1  UNL1        0.0544
     13 C         139.9170  139.4421  163.3420 C.ar    1  UNL1       -0.0025
     14 C         138.8523  140.3796  163.8294 C.ar    1  UNL1       -0.0002
     15 C         138.1740  140.1264  165.1430 C.ar    1  UNL1        0.0011
     16 C         138.5602  138.9357  165.9694 C.ar    1  UNL1        0.0137
     17 C         139.6249  137.9981  165.4820 C.ar    1  UNL1       -0.0031
     18 C         140.3032  138.2513  164.1684 C.ar    1  UNL1       -0.0218
     19 C         141.3679  137.3137  163.6811 C.3     1  UNL1        0.0310
     20 C         137.8819  138.6824  167.2830 C.2     1  UNL1        0.0729
     21 O         136.7729  137.6764  167.3728 O.co2   1  UNL1       -0.5446
     22 O         138.3125  139.4352  168.5069 O.co2   1  UNL1       -0.5446
     23 C         143.8881  141.2708  158.0377 C.3     1  UNL1        0.2542
     24 O         142.6304  140.4549  158.0874 O.3     1  UNL1       -0.4561
     25 C         138.4998  143.4236  155.9210 C.3     1  UNL1        0.4229
     26 F         137.6162  143.3186  154.7135 F       1  UNL1       -0.1657
     27 F         137.2925  143.3676  156.8094 F       1  UNL1       -0.1657
     28 F         139.7072  143.4796  155.0327 F       1  UNL1       -0.1657
     29 O         139.5960  146.0901  156.7504 O.3     1  UNL1       -0.4562
     30 C         140.5356  146.5763  155.6870 C.3     1  UNL1        0.2542
     31 C         142.0344  143.8434  160.7512 C.3     1  UNL1        0.1427
     32 N         141.4550  143.6607  162.1227 N.am    1  UNL1       -0.2380
     33 C         140.2204  144.3266  162.6540 C.2     1  UNL1        0.4055
     34 O         139.3484  145.2920  161.9072 O.2     1  UNL1       -0.2262
     35 O         140.0108  143.8576  164.0634 O.3     1  UNL1       -0.4320
     36 C         141.1159  142.9018  164.4030 C.3     1  UNL1        0.2107
     37 C         142.0084  142.7802  163.2036 C.3     1  UNL1        0.1233
     38 C         143.2385  141.9277  163.1027 C.3     1  UNL1        0.0258
     39 C         141.2967  142.1923  165.7120 C.ar    1  UNL1        0.0189
     40 C         140.6760  142.7491  166.9590 C.ar    1  UNL1        0.0031
     41 C         140.8568  142.0396  168.2681 C.ar    1  UNL1        0.0712
     42 C         141.6583  140.7732  168.3304 C.ar    1  UNL1        0.0077
     43 C         142.2791  140.2164  167.0835 C.ar    1  UNL1        0.0712
     44 C         142.0982  140.9260  165.7744 C.ar    1  UNL1        0.0031
     45 C         140.2361  142.5964  169.5149 C.3     1  UNL1        0.4186
     46 F         139.6154  143.1533  170.7618 F       1  UNL1       -0.1659
     47 F         140.4513  141.2838  170.2082 F       1  UNL1       -0.1659
     48 F         140.0209  143.9091  168.8216 F       1  UNL1       -0.1659
     49 C         143.0806  138.9500  167.1458 C.3     1  UNL1        0.4186
     50 F         143.8821  137.6836  167.2081 F       1  UNL1       -0.1659
     51 F         143.3853  139.0708  165.6820 F       1  UNL1       -0.1659
     52 F         142.7759  138.8292  168.6095 F       1  UNL1       -0.1659
@<TRIPOS>UNITY_ATOM_ATTR
21 1
charge -1
@<TRIPOS>BOND
     1    23    24    1
     2    24     7    1
     3     7     8   ar
     4     8     9   ar
     5     9    10   ar
     6    10    13    1
     7    13    14   ar
     8    14    15   ar
     9    15    16   ar
    10    16    20    1
    11    20    21   ar
    12    20    22   ar
    13    16    17   ar
    14    17    18   ar
    15    18    19    1
    16    10    11   ar
    17    11    12   ar
    18    12     1    1
    19     1     2   ar
    20     2     3   ar
    21     3    25    1
    22    25    26    1
    23    25    27    1
    24    25    28    1
    25     3     4   ar
    26     4    29    1
    27    29    30    1
    28     4     5   ar
    29     5     6   ar
    30     6    31    1
    31    31    32    1
    32    32    33   am
    33    33    34    2
    34    33    35    1
    35    35    36    1
    36    36    39    1
    37    39    40   ar
    38    40    41   ar
    39    41    45    1
    40    45    46    1
    41    45    47    1
    42    45    48    1
    43    41    42   ar
    44    42    43   ar
    45    43    49    1
    46    49    50    1
    47    49    51    1
    48    49    52    1
    49    43    44   ar
    50    36    37    1
    51    37    38    1
    52    12     7   ar
    53     6     1   ar
    54    37    32    1
    55    18    13   ar
    56    44    39   ar
@<TRIPOS>MOLECULE
*****
 52 56 0 0 0
SMALL
GASTEIGER

@<TRIPOS>ATOM
      1 C         140.5548  142.2469  158.6825 C.ar    1  UNL1        0.0199
      2 C         141.5081  142.8290  157.6812 C.ar    1  UNL1        0.0099
      3 C         141.2880  144.2161  157.1545 C.ar    1  UNL1        0.1244
      4 C         140.1146  145.0212  157.6289 C.ar    1  UNL1        0.2285
      5 N         139.1613  144.4391  158.6302 N.ar    1  UNL1       -0.2144
      6 C         139.3815  143.0519  159.1569 C.ar    1  UNL1        0.0823
      7 C         140.4673  139.6722  158.3461 C.ar    1  UNL1        0.2249
      8 N         140.6875  138.2851  158.8729 N.ar    1  UNL1       -0.2101
      9 C         141.2153  138.0856  160.2628 C.ar    1  UNL1        0.1020
     10 C         141.5229  139.2732  161.1258 C.ar    1  UNL1        0.0191
     11 C         141.3027  140.6603  160.5991 C.ar    1  UNL1        0.0062
     12 C         140.7750  140.8598  159.2092 C.ar    1  UNL1        0.0544
     13 C         142.0507  139.0738  162.5157 C.ar    1  UNL1       -0.0025
     14 C         141.1592  138.5116  163.5830 C.ar    1  UNL1       -0.0002
     15 C         141.6869  138.3122  164.9728 C.ar    1  UNL1        0.0011
     16 C         143.1062  138.6748  165.2954 C.ar    1  UNL1        0.0137
     17 C         143.9977  139.2370  164.2281 C.ar    1  UNL1       -0.0031
     18 C         143.4699  139.4364  162.8382 C.ar    1  UNL1       -0.0218
     19 C         144.3615  139.9986  161.7709 C.3     1  UNL1        0.0310
     20 C         143.6340  138.4754  166.6852 C.2     1  UNL1        0.0729
     21 O         144.7220  137.4743  166.9378 O.co2   1  UNL1       -0.5446
     22 O         143.0737  139.2770  167.8225 O.co2   1  UNL1       -0.5446
     23 C         138.4792  140.1367  156.7394 C.3     1  UNL1        0.2542
     24 O         139.9396  139.8716  156.9563 O.3     1  UNL1       -0.4561
     25 C         142.2413  144.7982  156.1532 C.3     1  UNL1        0.4229
     26 F         143.1945  145.3803  155.1520 F       1  UNL1       -0.1657
     27 F         141.6670  143.9096  155.0899 F       1  UNL1       -0.1657
     28 F         142.8155  145.6867  157.2166 F       1  UNL1       -0.1657
     29 O         139.8945  146.4082  157.1022 O.3     1  UNL1       -0.4562
     30 C         139.0142  146.6258  155.9073 C.3     1  UNL1        0.2542
     31 C         138.4282  142.4698  160.1582 C.3     1  UNL1        0.1427
     32 N         138.7174  142.5872  161.6254 N.am    1  UNL1       -0.2380
     33 C         139.1242  143.8381  162.3464 C.2     1  UNL1        0.4055
     34 O         139.3131  145.1911  161.7270 O.2     1  UNL1       -0.2262
     35 O         139.3088  143.4984  163.7958 O.3     1  UNL1       -0.4320
     36 C         139.0161  142.0376  163.9704 C.3     1  UNL1        0.2107
     37 C         138.6506  141.4745  162.6290 C.3     1  UNL1        0.1233
     38 C         138.2829  140.0490  162.3416 C.3     1  UNL1        0.0258
     39 C         139.0781  141.2740  165.2599 C.ar    1  UNL1        0.0189
     40 C         139.8248  141.8396  166.4315 C.ar    1  UNL1        0.0031
     41 C         139.8867  141.0760  167.7210 C.ar    1  UNL1        0.0712
     42 C         139.2019  139.7467  167.8391 C.ar    1  UNL1        0.0077
     43 C         138.4552  139.1809  166.6676 C.ar    1  UNL1        0.0712
     44 C         138.3933  139.9447  165.3780 C.ar    1  UNL1        0.0031
     45 C         140.6335  141.6417  168.8925 C.3     1  UNL1        0.4186
     46 F         141.3802  142.2074  170.0639 F       1  UNL1       -0.1659
     47 F         141.7307  142.0935  167.9749 F       1  UNL1       -0.1659
     48 F         139.5362  141.1899  169.8101 F       1  UNL1       -0.1659
     49 C         137.7704  137.8516  166.7857 C.3     1  UNL1        0.4186
     50 F         137.0856  136.5223  166.9038 F       1  UNL1       -0.1659
     51 F         138.5262  137.3559  165.5887 F       1  UNL1       -0.1659
     52 F         137.0145  138.3474  167.9828 F       1  UNL1       -0.1659
@<TRIPOS>UNITY_ATOM_ATTR
21 1
charge -1
@<TRIPOS>BOND
     1    23    24    1
     2    24     7    1
     3     7     8   ar
     4     8     9   ar
     5     9    10   ar
     6    10    13    1
     7    13    14   ar
     8    14    15   ar
     9    15    16   ar
    10    16    20    1
    11    20    21   ar
    12    20    22   ar
    13    16    17   ar
    14    17    18   ar
    15    18    19    1
    16    10    11   ar
    17    11    12   ar
    18    12     1    1
    19     1     2   ar
    20     2     3   ar
    21     3    25    1
    22    25    26    1
    23    25    27    1
    24    25    28    1
    25     3     4   ar
    26     4    29    1
    27    29    30    1
    28     4     5   ar
    29     5     6   ar
    30     6    31    1
    31    31    32    1
    32    32    33   am
    33    33    34    2
    34    33    35    1
    35    35    36    1
    36    36    39    1
    37    39    40   ar
    38    40    41   ar
    39    41    45    1
    40    45    46    1
    41    45    47    1
    42    45    48    1
    43    41    42   ar
    44    42    43   ar
    45    43    49    1
    46    49    50    1
    47    49    51    1
    48    49    52    1
    49    43    44   ar
    50    36    37    1
    51    37    38    1
    52    12     7   ar
    53     6     1   ar
    54    37    32    1
    55    18    13   ar
    56    44    39   ar
@<TRIPOS>MOLECULE
*****
 52 56 0 0 0
SMALL
GASTEIGER

@<TRIPOS>ATOM
      1 C         140.3037  142.1163  158.8716 C.ar    1  UNL1        0.0199
      2 C         141.2154  142.2270  157.6856 C.ar    1  UNL1        0.0099
      3 C         141.3699  143.5408  156.9785 C.ar    1  UNL1        0.1244
      4 C         140.6129  144.7440  157.4575 C.ar    1  UNL1        0.2285
      5 N         139.7012  144.6332  158.6436 N.ar    1  UNL1       -0.2144
      6 C         139.5467  143.3193  159.3506 C.ar    1  UNL1        0.0823
      7 C         139.3011  139.7217  158.9763 C.ar    1  UNL1        0.2249
      8 N         139.1466  138.4079  159.6833 N.ar    1  UNL1       -0.2101
      9 C         139.8401  138.1747  160.9927 C.ar    1  UNL1        0.1020
     10 C         140.6882  139.2554  161.5951 C.ar    1  UNL1        0.0191
     11 C         140.8427  140.5692  160.8881 C.ar    1  UNL1        0.0062
     12 C         140.1492  140.8023  159.5787 C.ar    1  UNL1        0.0544
     13 C         141.3817  139.0222  162.9046 C.ar    1  UNL1       -0.0025
     14 C         141.0076  137.8423  163.7518 C.ar    1  UNL1       -0.0002
     15 C         141.7011  137.6092  165.0613 C.ar    1  UNL1        0.0011
     16 C         142.7688  138.5559  165.5235 C.ar    1  UNL1        0.0137
     17 C         143.1429  139.7358  164.6763 C.ar    1  UNL1       -0.0031
     18 C         142.4494  139.9689  163.3668 C.ar    1  UNL1       -0.0218
     19 C         142.8236  141.1489  162.5196 C.3     1  UNL1        0.0310
     20 C         143.4623  138.3227  166.8329 C.2     1  UNL1        0.0729
     21 O         143.0590  139.1081  168.0455 O.co2   1  UNL1       -0.5446
     22 O         144.5592  137.3042  166.9298 O.co2   1  UNL1       -0.5446
     23 C         137.3364  140.7499  157.6225 C.3     1  UNL1        0.2542
     24 O         138.6076  139.9548  157.6668 O.3     1  UNL1       -0.4561
     25 C         142.2816  143.6516  155.7925 C.3     1  UNL1        0.4229
     26 F         143.1932  143.7623  154.6065 F       1  UNL1       -0.1657
     27 F         143.4703  143.6632  156.7073 F       1  UNL1       -0.1657
     28 F         141.0928  143.6399  154.8777 F       1  UNL1       -0.1657
     29 O         140.7674  146.0578  156.7505 O.3     1  UNL1       -0.4562
     30 C         139.5537  146.8068  156.2859 C.3     1  UNL1        0.2542
     31 C         138.6351  143.2086  160.5366 C.3     1  UNL1        0.1427
     32 N         139.2109  143.0881  161.9165 N.am    1  UNL1       -0.2380
     33 C         140.2950  143.9467  162.4974 C.2     1  UNL1        0.4055
     34 O         140.9937  145.0764  161.8006 O.2     1  UNL1       -0.2262
     35 O         140.5579  143.4772  163.8977 O.3     1  UNL1       -0.4320
     36 C         139.6361  142.3284  164.1820 C.3     1  UNL1        0.2107
     37 C         138.8037  142.0880  162.9576 C.3     1  UNL1        0.1233
     38 C         137.7492  141.0327  162.8016 C.3     1  UNL1        0.0258
     39 C         139.5602  141.5558  165.4654 C.ar    1  UNL1        0.0189
     40 C         138.7407  140.3016  165.5385 C.ar    1  UNL1        0.0031
     41 C         138.6648  139.5290  166.8219 C.ar    1  UNL1        0.0712
     42 C         139.4084  140.0105  168.0324 C.ar    1  UNL1        0.0077
     43 C         140.2279  141.2648  167.9594 C.ar    1  UNL1        0.0712
     44 C         140.3038  142.0374  166.6759 C.ar    1  UNL1        0.0031
     45 C         137.8453  138.2748  166.8950 C.3     1  UNL1        0.4186
     46 F         137.0258  137.0205  166.9680 F       1  UNL1       -0.1659
     47 F         137.3436  138.6814  168.2488 F       1  UNL1       -0.1659
     48 F         138.3470  137.8681  165.5410 F       1  UNL1       -0.1659
     49 C         140.9715  141.7463  169.1698 C.3     1  UNL1        0.4186
     50 F         141.7151  142.2279  170.3803 F       1  UNL1       -0.1659
     51 F         139.8052  141.3717  170.0354 F       1  UNL1       -0.1659
     52 F         142.1379  142.1210  168.3043 F       1  UNL1       -0.1659
@<TRIPOS>UNITY_ATOM_ATTR
21 1
charge -1
@<TRIPOS>BOND
     1    23    24    1
     2    24     7    1
     3     7     8   ar
     4     8     9   ar
     5     9    10   ar
     6    10    13    1
     7    13    14   ar
     8    14    15   ar
     9    15    16   ar
    10    16    20    1
    11    20    21   ar
    12    20    22   ar
    13    16    17   ar
    14    17    18   ar
    15    18    19    1
    16    10    11   ar
    17    11    12   ar
    18    12     1    1
    19     1     2   ar
    20     2     3   ar
    21     3    25    1
    22    25    26    1
    23    25    27    1
    24    25    28    1
    25     3     4   ar
    26     4    29    1
    27    29    30    1
    28     4     5   ar
    29     5     6   ar
    30     6    31    1
    31    31    32    1
    32    32    33   am
    33    33    34    2
    34    33    35    1
    35    35    36    1
    36    36    39    1
    37    39    40   ar
    38    40    41   ar
    39    41    45    1
    40    45    46    1
    41    45    47    1
    42    45    48    1
    43    41    42   ar
    44    42    43   ar
    45    43    49    1
    46    49    50    1
    47    49    51    1
    48    49    52    1
    49    43    44   ar
    50    36    37    1
    51    37    38    1
    52    12     7   ar
    53     6     1   ar
    54    37    32    1
    55    18    13   ar
    56    44    39   ar
@<TRIPOS>MOLECULE
*****
 52 56 0 0 0
SMALL
GASTEIGER

@<TRIPOS>ATOM
      1 C         141.7912  141.0869  158.8021 C.ar    1  UNL1        0.0199
      2 C         141.8072  139.7989  158.0334 C.ar    1  UNL1        0.0099
      3 C         143.0297  139.4024  157.2599 C.ar    1  UNL1        0.1244
      4 C         144.2361  140.2938  157.2551 C.ar    1  UNL1        0.2285
      5 N         144.2200  141.5818  158.0237 N.ar    1  UNL1       -0.2144
      6 C         142.9975  141.9783  158.7973 C.ar    1  UNL1        0.0823
      7 C         139.6084  142.4820  159.0006 C.ar    1  UNL1        0.2249
      8 N         138.3860  142.8785  159.7741 N.ar    1  UNL1       -0.2101
      9 C         138.1238  142.2764  161.1228 C.ar    1  UNL1        0.1020
     10 C         139.0840  141.2778  161.6978 C.ar    1  UNL1        0.0191
     11 C         140.3065  140.8814  160.9243 C.ar    1  UNL1        0.0062
     12 C         140.5686  141.4834  159.5757 C.ar    1  UNL1        0.0544
     13 C         138.8218  140.6758  163.0464 C.ar    1  UNL1       -0.0025
     14 C         139.0418  139.2087  163.2684 C.ar    1  UNL1       -0.0002
     15 C         138.7796  138.6066  164.6171 C.ar    1  UNL1        0.0011
     16 C         138.2975  139.4716  165.7437 C.ar    1  UNL1        0.0137
     17 C         138.0775  140.9387  165.5217 C.ar    1  UNL1       -0.0031
     18 C         138.3397  141.5408  164.1731 C.ar    1  UNL1       -0.0218
     19 C         138.1198  143.0079  163.9511 C.3     1  UNL1        0.0310
     20 C         138.0353  138.8695  167.0923 C.2     1  UNL1        0.0729
     21 O         137.0606  137.7379  167.2318 O.co2   1  UNL1       -0.5446
     22 O         138.7477  139.3991  168.3014 O.co2   1  UNL1       -0.5446
     23 C         139.9625  144.5736  157.5006 C.3     1  UNL1        0.2542
     24 O         139.8706  143.0841  157.6520 O.3     1  UNL1       -0.4561
     25 C         143.0457  138.1144  156.4912 C.3     1  UNL1        0.4229
     26 F         143.0618  136.8264  155.7226 F       1  UNL1       -0.1657
     27 F         143.1415  137.3481  157.7772 F       1  UNL1       -0.1657
     28 F         142.9500  138.8807  155.2053 F       1  UNL1       -0.1657
     29 O         145.4585  139.8972  156.4815 O.3     1  UNL1       -0.4562
     30 C         146.0535  140.8443  155.4821 C.3     1  UNL1        0.2542
     31 C         142.9814  143.2663  159.5660 C.3     1  UNL1        0.1427
     32 N         142.4151  143.3040  160.9545 N.am    1  UNL1       -0.2380
     33 C         141.4155  144.2953  161.4723 C.2     1  UNL1        0.4055
     34 O         140.8066  145.4228  160.6926 O.2     1  UNL1       -0.2262
     35 O         141.1315  143.9610  162.9068 O.3     1  UNL1       -0.4320
     36 C         141.9558  142.7631  163.2755 C.3     1  UNL1        0.2107
     37 C         142.7490  142.3571  162.0689 C.3     1  UNL1        0.1233
     38 C         143.7078  141.2063  161.9904 C.3     1  UNL1        0.0258
     39 C         141.9820  142.0896  164.6154 C.ar    1  UNL1        0.0189
     40 C         142.6561  140.7588  164.7729 C.ar    1  UNL1        0.0031
     41 C         142.6824  140.0853  166.1129 C.ar    1  UNL1        0.0712
     42 C         142.0346  140.7424  167.2955 C.ar    1  UNL1        0.0077
     43 C         141.3605  142.0733  167.1381 C.ar    1  UNL1        0.0712
     44 C         141.3343  142.7467  165.7980 C.ar    1  UNL1        0.0031
     45 C         143.3564  138.7546  166.2703 C.3     1  UNL1        0.4186
     46 F         144.0305  137.4238  166.4277 F       1  UNL1       -0.1659
     47 F         143.1408  138.8208  167.7532 F       1  UNL1       -0.1659
     48 F         143.5721  138.6883  164.7873 F       1  UNL1       -0.1659
     49 C         140.7128  142.7304  168.3207 C.3     1  UNL1        0.4186
     50 F         140.0650  143.3876  169.5033 F       1  UNL1       -0.1659
     51 F         139.9087  143.5979  167.3982 F       1  UNL1       -0.1659
     52 F         141.5169  141.8630  169.2431 F       1  UNL1       -0.1659
@<TRIPOS>UNITY_ATOM_ATTR
21 1
charge -1
@<TRIPOS>BOND
     1    23    24    1
     2    24     7    1
     3     7     8   ar
     4     8     9   ar
     5     9    10   ar
     6    10    13    1
     7    13    14   ar
     8    14    15   ar
     9    15    16   ar
    10    16    20    1
    11    20    21   ar
    12    20    22   ar
    13    16    17   ar
    14    17    18   ar
    15    18    19    1
    16    10    11   ar
    17    11    12   ar
    18    12     1    1
    19     1     2   ar
    20     2     3   ar
    21     3    25    1
    22    25    26    1
    23    25    27    1
    24    25    28    1
    25     3     4   ar
    26     4    29    1
    27    29    30    1
    28     4     5   ar
    29     5     6   ar
    30     6    31    1
    31    31    32    1
    32    32    33   am
    33    33    34    2
    34    33    35    1
    35    35    36    1
    36    36    39    1
    37    39    40   ar
    38    40    41   ar
    39    41    45    1
    40    45    46    1
    41    45    47    1
    42    45    48    1
    43    41    42   ar
    44    42    43   ar
    45    43    49    1
    46    49    50    1
    47    49    51    1
    48    49    52    1
    49    43    44   ar
    50    36    37    1
    51    37    38    1
    52    12     7   ar
    53     6     1   ar
    54    37    32    1
    55    18    13   ar
    56    44    39   ar
@<TRIPOS>MOLECULE
*****
 52 56 0 0 0
SMALL
GASTEIGER

@<TRIPOS>ATOM
      1 C         141.7488  141.0781  158.8335 C.ar    1  UNL1        0.0199
      2 C         141.7493  139.7914  158.0625 C.ar    1  UNL1        0.0099
      3 C         142.9643  139.3849  157.2825 C.ar    1  UNL1        0.1244
      4 C         144.1790  140.2651  157.2736 C.ar    1  UNL1        0.2285
      5 N         144.1785  141.5517  158.0446 N.ar    1  UNL1       -0.2144
      6 C         142.9633  141.9582  158.8246 C.ar    1  UNL1        0.0823
      7 C         139.5783  142.4906  159.0431 C.ar    1  UNL1        0.2249
      8 N         138.3632  142.8970  159.8231 N.ar    1  UNL1       -0.2101
      9 C         138.1035  142.2975  161.1733 C.ar    1  UNL1        0.1020
     10 C         139.0588  141.2915  161.7436 C.ar    1  UNL1        0.0191
     11 C         140.2739  140.8851  160.9637 C.ar    1  UNL1        0.0062
     12 C         140.5336  141.4846  159.6134 C.ar    1  UNL1        0.0544
     13 C         138.7991  140.6920  163.0939 C.ar    1  UNL1       -0.0025
     14 C         138.9675  139.2165  163.3043 C.ar    1  UNL1       -0.0002
     15 C         138.7078  138.6170  164.6545 C.ar    1  UNL1        0.0011
     16 C         138.2797  139.4930  165.7943 C.ar    1  UNL1        0.0137
     17 C         138.1114  140.9686  165.5839 C.ar    1  UNL1       -0.0031
     18 C         138.3711  141.5681  164.2337 C.ar    1  UNL1       -0.0218
     19 C         138.2027  143.0437  164.0233 C.3     1  UNL1        0.0310
     20 C         138.0200  138.8935  167.1446 C.2     1  UNL1        0.0729
     21 O         138.7359  139.4243  168.3511 O.co2   1  UNL1       -0.5446
     22 O         137.0445  137.7632  167.2883 O.co2   1  UNL1       -0.5446
     23 C         140.0149  144.5729  157.5521 C.3     1  UNL1        0.2542
     24 O         139.8380  143.0901  157.6929 O.3     1  UNL1       -0.4561
     25 C         142.9648  138.0982  156.5115 C.3     1  UNL1        0.4229
     26 F         142.9653  136.8115  155.7405 F       1  UNL1       -0.1657
     27 F         142.7416  138.8606  155.2391 F       1  UNL1       -0.1657
     28 F         143.1880  137.3358  157.7839 F       1  UNL1       -0.1657
     29 O         145.3940  139.8585  156.4937 O.3     1  UNL1       -0.4562
     30 C         145.6493  140.4518  155.1399 C.3     1  UNL1        0.2542
     31 C         142.9628  143.2449  159.5956 C.3     1  UNL1        0.1427
     32 N         142.4151  143.2825  160.9916 N.am    1  UNL1       -0.2380
     33 C         141.4238  144.2748  161.5232 C.2     1  UNL1        0.4055
     34 O         140.8061  145.4036  160.7524 O.2     1  UNL1       -0.2262
     35 O         141.1586  143.9401  162.9612 O.3     1  UNL1       -0.4320
     36 C         141.9861  142.7409  163.3182 C.3     1  UNL1        0.2107
     37 C         142.7626  142.3346  162.1009 C.3     1  UNL1        0.1233
     38 C         143.7188  141.1825  162.0089 C.3     1  UNL1        0.0258
     39 C         142.0294  142.0665  164.6573 C.ar    1  UNL1        0.0189
     40 C         141.3924  142.7206  165.8474 C.ar    1  UNL1        0.0031
     41 C         141.4357  142.0462  167.1865 C.ar    1  UNL1        0.0712
     42 C         142.1160  140.7177  167.3356 C.ar    1  UNL1        0.0077
     43 C         142.7530  140.0635  166.1454 C.ar    1  UNL1        0.0712
     44 C         142.7097  140.7380  164.8063 C.ar    1  UNL1        0.0031
     45 C         140.7987  142.7004  168.3766 C.3     1  UNL1        0.4186
     46 F         140.1617  143.3545  169.5667 F       1  UNL1       -0.1659
     47 F         139.9782  143.5624  167.4636 F       1  UNL1       -0.1659
     48 F         141.6192  141.8382  169.2897 F       1  UNL1       -0.1659
     49 C         143.4333  138.7350  166.2945 C.3     1  UNL1        0.4186
     50 F         144.1136  137.4065  166.4436 F       1  UNL1       -0.1659
     51 F         143.0454  138.6989  167.7430 F       1  UNL1       -0.1659
     52 F         143.8212  138.7711  164.8460 F       1  UNL1       -0.1659
@<TRIPOS>UNITY_ATOM_ATTR
21 1
charge -1
@<TRIPOS>BOND
     1    23    24    1
     2    24     7    1
     3     7     8   ar
     4     8     9   ar
     5     9    10   ar
     6    10    13    1
     7    13    14   ar
     8    14    15   ar
     9    15    16   ar
    10    16    20    1
    11    20    21   ar
    12    20    22   ar
    13    16    17   ar
    14    17    18   ar
    15    18    19    1
    16    10    11   ar
    17    11    12   ar
    18    12     1    1
    19     1     2   ar
    20     2     3   ar
    21     3    25    1
    22    25    26    1
    23    25    27    1
    24    25    28    1
    25     3     4   ar
    26     4    29    1
    27    29    30    1
    28     4     5   ar
    29     5     6   ar
    30     6    31    1
    31    31    32    1
    32    32    33   am
    33    33    34    2
    34    33    35    1
    35    35    36    1
    36    36    39    1
    37    39    40   ar
    38    40    41   ar
    39    41    45    1
    40    45    46    1
    41    45    47    1
    42    45    48    1
    43    41    42   ar
    44    42    43   ar
    45    43    49    1
    46    49    50    1
    47    49    51    1
    48    49    52    1
    49    43    44   ar
    50    36    37    1
    51    37    38    1
    52    12     7   ar
    53     6     1   ar
    54    37    32    1
    55    18    13   ar
    56    44    39   ar
@<TRIPOS>MOLECULE
*****
 52 56 0 0 0
SMALL
GASTEIGER

@<TRIPOS>ATOM
      1 C         140.7873  140.6584  165.7793 C.ar    1  UNL1        0.0199
      2 C         140.7010  141.7004  166.8549 C.ar    1  UNL1        0.0099
      3 C         141.5408  141.5734  168.0912 C.ar    1  UNL1        0.1244
      4 C         142.4669  140.4044  168.2520 C.ar    1  UNL1        0.2285
      5 N         142.5532  139.3624  167.1764 N.ar    1  UNL1       -0.2144
      6 C         141.7133  139.4895  165.9400 C.ar    1  UNL1        0.0823
      7 C         138.6792  139.9951  164.4132 C.ar    1  UNL1        0.2249
      8 N         137.8394  140.1222  163.1769 N.ar    1  UNL1       -0.2101
      9 C         138.2678  141.0397  162.0702 C.ar    1  UNL1        0.1020
     10 C         139.5361  141.8300  162.1999 C.ar    1  UNL1        0.0191
     11 C         140.3758  141.7029  163.4362 C.ar    1  UNL1        0.0062
     12 C         139.9474  140.7855  164.5429 C.ar    1  UNL1        0.0544
     13 C         139.9645  142.7475  161.0932 C.ar    1  UNL1       -0.0025
     14 C         140.5794  142.1832  159.8469 C.ar    1  UNL1       -0.0002
     15 C         141.0079  143.1006  158.7402 C.ar    1  UNL1        0.0011
     16 C         140.8214  144.5824  158.8799 C.ar    1  UNL1        0.0137
     17 C         140.2065  145.1467  160.1263 C.ar    1  UNL1       -0.0031
     18 C         139.7781  144.2293  161.2329 C.ar    1  UNL1       -0.0218
     19 C         139.1632  144.7936  162.4793 C.3     1  UNL1        0.0310
     20 C         141.2499  145.4999  157.7733 C.2     1  UNL1        0.0729
     21 O         142.5445  146.2498  157.8797 O.co2   1  UNL1       -0.5446
     22 O         140.3836  145.6674  156.5602 O.co2   1  UNL1       -0.5446
     23 C         138.4711  137.5991  165.3960 C.3     1  UNL1        0.2542
     24 O         138.2507  139.0777  165.5199 O.3     1  UNL1       -0.4561
     25 C         141.4545  142.6153  169.1668 C.3     1  UNL1        0.4229
     26 F         141.3682  143.6573  170.2424 F       1  UNL1       -0.1657
     27 F         142.8818  142.9987  168.9099 F       1  UNL1       -0.1657
     28 F         140.0273  142.2320  169.4237 F       1  UNL1       -0.1657
     29 O         143.3067  140.2774  169.4884 O.3     1  UNL1       -0.4562
     30 C         142.7232  139.6769  170.7329 C.3     1  UNL1        0.2542
     31 C         141.7996  138.4475  164.8645 C.3     1  UNL1        0.1427
     32 N         142.6075  138.7108  163.6283 N.am    1  UNL1       -0.2380
     33 C         144.0470  139.1307  163.5888 C.2     1  UNL1        0.4055
     34 O         144.9313  139.3611  164.7783 O.2     1  UNL1       -0.2262
     35 O         144.4470  139.2797  162.1507 O.3     1  UNL1       -0.4320
     36 C         143.2546  138.9519  161.3016 C.3     1  UNL1        0.2107
     37 C         142.1178  138.6003  162.2148 C.3     1  UNL1        0.1233
     38 C         140.7342  138.2072  161.7893 C.3     1  UNL1        0.0258
     39 C         143.2074  138.9722  159.8026 C.ar    1  UNL1        0.0189
     40 C         142.7344  137.7636  159.0505 C.ar    1  UNL1        0.0031
     41 C         142.6872  137.7839  157.5515 C.ar    1  UNL1        0.0712
     42 C         143.1131  139.0129  156.8043 C.ar    1  UNL1        0.0077
     43 C         143.5861  140.2216  157.5562 C.ar    1  UNL1        0.0712
     44 C         143.6333  140.2012  159.0553 C.ar    1  UNL1        0.0031
     45 C         142.2142  136.5753  156.7996 C.3     1  UNL1        0.4186
     46 F         141.7412  135.3666  156.0477 F       1  UNL1       -0.1659
     47 F         140.7908  136.9766  157.0499 F       1  UNL1       -0.1659
     48 F         143.6378  136.1739  156.5492 F       1  UNL1       -0.1659
     49 C         144.0119  141.4505  156.8090 C.3     1  UNL1        0.4186
     50 F         144.4378  142.6795  156.0618 F       1  UNL1       -0.1659
     51 F         142.6218  141.6022  156.2662 F       1  UNL1       -0.1659
     52 F         145.4020  141.2989  157.3518 F       1  UNL1       -0.1659
@<TRIPOS>UNITY_ATOM_ATTR
21 1
charge -1
@<TRIPOS>BOND
     1    23    24    1
     2    24     7    1
     3     7     8   ar
     4     8     9   ar
     5     9    10   ar
     6    10    13    1
     7    13    14   ar
     8    14    15   ar
     9    15    16   ar
    10    16    20    1
    11    20    21   ar
    12    20    22   ar
    13    16    17   ar
    14    17    18   ar
    15    18    19    1
    16    10    11   ar
    17    11    12   ar
    18    12     1    1
    19     1     2   ar
    20     2     3   ar
    21     3    25    1
    22    25    26    1
    23    25    27    1
    24    25    28    1
    25     3     4   ar
    26     4    29    1
    27    29    30    1
    28     4     5   ar
    29     5     6   ar
    30     6    31    1
    31    31    32    1
    32    32    33   am
    33    33    34    2
    34    33    35    1
    35    35    36    1
    36    36    39    1
    37    39    40   ar
    38    40    41   ar
    39    41    45    1
    40    45    46    1
    41    45    47    1
    42    45    48    1
    43    41    42   ar
    44    42    43   ar
    45    43    49    1
    46    49    50    1
    47    49    51    1
    48    49    52    1
    49    43    44   ar
    50    36    37    1
    51    37    38    1
    52    12     7   ar
    53     6     1   ar
    54    37    32    1
    55    18    13   ar
    56    44    39   ar
