@<TRIPOS>MOLECULE
*****
 27 29 0 0 0
SMALL
GASTEIGER

@<TRIPOS>ATOM
      1 C         140.6894  145.5124  162.2985 C.3     1  UNL1        0.0066
      2 C         139.8990  144.4105  162.9396 C.3     1  UNL1        0.0454
      3 C         140.4384  143.7064  164.1493 C.ar    1  UNL1       -0.0207
      4 C         139.6669  143.7272  165.4355 C.ar    1  UNL1       -0.0042
      5 C         140.2063  143.0231  166.6451 C.ar    1  UNL1       -0.0003
      6 C         141.5172  142.2982  166.5686 C.ar    1  UNL1       -0.0000
      7 C         142.2888  142.2774  165.2824 C.ar    1  UNL1       -0.0003
      8 C         141.7494  142.9815  164.0728 C.ar    1  UNL1       -0.0042
      9 C         142.0566  141.5941  167.7783 C.ar    1  UNL1        0.0001
     10 C         141.7361  140.1470  168.0089 C.ar    1  UNL1        0.0023
     11 C         142.2755  139.4429  169.2187 C.ar    1  UNL1        0.0296
     12 C         143.1354  140.1859  170.1977 C.ar    1  UNL1        0.1401
     13 F         143.6748  139.4819  171.4073 F       1  UNL1       -0.2042
     14 C         143.4560  141.6331  169.9670 C.ar    1  UNL1        0.0296
     15 C         142.9166  142.3371  168.7573 C.ar    1  UNL1        0.0023
     16 C         138.5692  144.0127  162.3710 C.3     1  UNL1        0.1325
     17 N         137.3338  144.7753  162.7484 N.3     1  UNL1       -0.3148
     18 H         137.5810  145.5249  163.3944 H       1  UNL1        0.1192
     19 H         136.6690  144.1451  163.1971 H       1  UNL1        0.1192
     20 C         138.4747  142.8524  161.4252 C.2     1  UNL1        0.2401
     21 O         138.5863  143.0790  159.9466 O.2     1  UNL1       -0.2734
     22 N         138.2686  141.4654  161.9579 N.am    1  UNL1       -0.2756
     23 C         138.1395  141.0862  163.4034 C.3     1  UNL1        0.0964
     24 C         137.9466  139.6005  163.4776 C.3     1  UNL1        0.0585
     25 C         137.9565  139.0614  162.0778 C.3     1  UNL1        0.1824
     26 F         137.7956  137.6225  161.6860 F       1  UNL1       -0.2354
     27 C         138.1555  140.2140  161.1387 C.3     1  UNL1        0.1286
@<TRIPOS>BOND
     1     2     1    1
     2     2     3    1
     3     3     4   ar
     4     4     5   ar
     5     5     6   ar
     6     6     9    1
     7     9    10   ar
     8    10    11   ar
     9    11    12   ar
    10    12    13    1
    11    12    14   ar
    12    14    15   ar
    13     6     7   ar
    14     7     8   ar
    15     2    16    1
    16    16    17    1
    17    16    20    1
    18    20    21    2
    19    20    22   am
    20    22    23    1
    21    23    24    1
    22    24    25    1
    23    25    26    1
    24    25    27    1
    25     8     3   ar
    26    27    22    1
    27    15     9   ar
    28    17    18    1
    29    17    19    1
@<TRIPOS>MOLECULE
*****
 27 29 0 0 0
SMALL
GASTEIGER

@<TRIPOS>ATOM
      1 C         138.6753  137.6300  162.9970 C.3     1  UNL1        0.0066
      2 C         138.8283  139.1218  163.0296 C.3     1  UNL1        0.0454
      3 C         139.4707  139.7842  164.2123 C.ar    1  UNL1       -0.0207
      4 C         140.9526  140.0152  164.2292 C.ar    1  UNL1       -0.0042
      5 C         141.5949  140.6776  165.4119 C.ar    1  UNL1       -0.0003
      6 C         140.7553  141.1088  166.5776 C.ar    1  UNL1       -0.0000
      7 C         139.2733  140.8778  166.5607 C.ar    1  UNL1       -0.0003
      8 C         138.6310  140.2155  165.3781 C.ar    1  UNL1       -0.0042
      9 C         141.3977  141.7712  167.7603 C.ar    1  UNL1        0.0001
     10 C         142.8481  141.5313  168.0581 C.ar    1  UNL1        0.0023
     11 C         143.4905  142.1937  169.2408 C.ar    1  UNL1        0.0296
     12 C         142.6824  143.0960  170.1256 C.ar    1  UNL1        0.1401
     13 F         143.3247  143.7583  171.3083 F       1  UNL1       -0.2042
     14 C         141.2319  143.3359  169.8277 C.ar    1  UNL1        0.0296
     15 C         140.5896  142.6735  168.6451 C.ar    1  UNL1        0.0023
     16 C         138.3389  139.9513  161.8797 C.3     1  UNL1        0.1325
     17 N         137.0272  139.6290  161.2271 N.3     1  UNL1       -0.3148
     18 H         136.6067  138.8226  161.6890 H       1  UNL1        0.1192
     19 H         137.1812  139.4144  160.2419 H       1  UNL1        0.1192
     20 C         139.1611  141.1030  161.3823 C.2     1  UNL1        0.2401
     21 O         140.2464  140.8694  160.3735 O.2     1  UNL1       -0.2734
     22 N         138.8980  142.4884  161.8935 N.am    1  UNL1       -0.2756
     23 C         137.8524  142.8740  162.8976 C.3     1  UNL1        0.0964
     24 C         137.9425  144.3554  163.1151 C.3     1  UNL1        0.0585
     25 C         139.0438  144.8854  162.2455 C.3     1  UNL1        0.1824
     26 F         139.4783  146.3178  162.1480 F       1  UNL1       -0.2354
     27 C         139.6343  143.7316  161.4906 C.3     1  UNL1        0.1286
@<TRIPOS>BOND
     1     2     1    1
     2     2     3    1
     3     3     4   ar
     4     4     5   ar
     5     5     6   ar
     6     6     9    1
     7     9    10   ar
     8    10    11   ar
     9    11    12   ar
    10    12    13    1
    11    12    14   ar
    12    14    15   ar
    13     6     7   ar
    14     7     8   ar
    15     2    16    1
    16    16    17    1
    17    16    20    1
    18    20    21    2
    19    20    22   am
    20    22    23    1
    21    23    24    1
    22    24    25    1
    23    25    26    1
    24    25    27    1
    25     8     3   ar
    26    27    22    1
    27    15     9   ar
    28    17    18    1
    29    17    19    1
@<TRIPOS>MOLECULE
*****
 27 29 0 0 0
SMALL
GASTEIGER

@<TRIPOS>ATOM
      1 C         138.7915  137.7048  162.7884 C.3     1  UNL1        0.0066
      2 C         138.9058  139.1986  162.8615 C.3     1  UNL1        0.0454
      3 C         139.5271  139.8453  164.0640 C.ar    1  UNL1       -0.0207
      4 C         138.6926  140.1307  165.2773 C.ar    1  UNL1       -0.0042
      5 C         139.3139  140.7774  166.4797 C.ar    1  UNL1       -0.0003
      6 C         140.7697  141.1387  166.4688 C.ar    1  UNL1       -0.0000
      7 C         141.6042  140.8533  165.2555 C.ar    1  UNL1       -0.0003
      8 C         140.9829  140.2066  164.0531 C.ar    1  UNL1       -0.0042
      9 C         141.3910  141.7854  167.6713 C.ar    1  UNL1        0.0001
     10 C         140.5613  142.6568  168.5668 C.ar    1  UNL1        0.0023
     11 C         141.1826  143.3035  169.7693 C.ar    1  UNL1        0.0296
     12 C         142.6335  143.0787  170.0761 C.ar    1  UNL1        0.1401
     13 F         143.2548  143.7253  171.2785 F       1  UNL1       -0.2042
     14 C         143.4632  142.2072  169.1805 C.ar    1  UNL1        0.0296
     15 C         142.8419  141.5605  167.9781 C.ar    1  UNL1        0.0023
     16 C         138.3988  140.0459  161.7323 C.3     1  UNL1        0.1325
     17 N         137.0867  139.7214  161.0817 N.3     1  UNL1       -0.3148
     18 H         136.6790  138.9006  161.5294 H       1  UNL1        0.1192
     19 H         137.2366  139.5292  160.0913 H       1  UNL1        0.1192
     20 C         139.2039  141.2174  161.2536 C.2     1  UNL1        0.2401
     21 O         140.2627  141.0233  160.2088 O.2     1  UNL1       -0.2734
     22 N         138.9503  142.5832  161.8195 N.am    1  UNL1       -0.2756
     23 C         137.9307  142.9295  162.8638 C.3     1  UNL1        0.0964
     24 C         138.0220  144.4028  163.1303 C.3     1  UNL1        0.0585
     25 C         139.0981  144.9671  162.2507 C.3     1  UNL1        0.1824
     26 F         139.5255  146.4037  162.1916 F       1  UNL1       -0.2354
     27 C         139.6718  143.8425  161.4407 C.3     1  UNL1        0.1286
@<TRIPOS>BOND
     1     2     1    1
     2     2     3    1
     3     3     4   ar
     4     4     5   ar
     5     5     6   ar
     6     6     9    1
     7     9    10   ar
     8    10    11   ar
     9    11    12   ar
    10    12    13    1
    11    12    14   ar
    12    14    15   ar
    13     6     7   ar
    14     7     8   ar
    15     2    16    1
    16    16    17    1
    17    16    20    1
    18    20    21    2
    19    20    22   am
    20    22    23    1
    21    23    24    1
    22    24    25    1
    23    25    26    1
    24    25    27    1
    25     8     3   ar
    26    27    22    1
    27    15     9   ar
    28    17    18    1
    29    17    19    1
@<TRIPOS>MOLECULE
*****
 27 29 0 0 0
SMALL
GASTEIGER

@<TRIPOS>ATOM
      1 C         143.4761  142.7284  160.2462 C.3     1  UNL1        0.0066
      2 C         142.4953  143.2397  161.2594 C.3     1  UNL1        0.0454
      3 C         142.5735  142.7708  162.6821 C.ar    1  UNL1       -0.0207
      4 C         141.8293  141.5402  163.1082 C.ar    1  UNL1       -0.0042
      5 C         141.9075  141.0714  164.5309 C.ar    1  UNL1       -0.0003
      6 C         142.7300  141.8332  165.5275 C.ar    1  UNL1       -0.0000
      7 C         143.4742  143.0638  165.1014 C.ar    1  UNL1       -0.0003
      8 C         143.3960  143.5326  163.6787 C.ar    1  UNL1       -0.0042
      9 C         142.8082  141.3643  166.9502 C.ar    1  UNL1        0.0001
     10 C         143.2044  142.3218  168.0347 C.ar    1  UNL1        0.0023
     11 C         143.2826  141.8529  169.4575 C.ar    1  UNL1        0.0296
     12 C         142.9646  140.4265  169.7956 C.ar    1  UNL1        0.1401
     13 F         143.0428  139.9576  171.2183 F       1  UNL1       -0.2042
     14 C         142.5684  139.4690  168.7110 C.ar    1  UNL1        0.0296
     15 C         142.4902  139.9379  167.2884 C.ar    1  UNL1        0.0023
     16 C         141.4363  144.2198  160.8499 C.3     1  UNL1        0.1325
     17 N         141.8166  145.4728  160.1181 N.3     1  UNL1       -0.3148
     18 H         142.8276  145.4950  159.9846 H       1  UNL1        0.1192
     19 H         141.5277  146.2855  160.6626 H       1  UNL1        0.1192
     20 C         139.9969  143.9470  161.1722 C.2     1  UNL1        0.2401
     21 O         139.0863  143.3856  160.1206 O.2     1  UNL1       -0.2734
     22 N         139.4682  144.2356  162.5459 N.am    1  UNL1       -0.2756
     23 C         140.2550  144.7949  163.6940 C.3     1  UNL1        0.0964
     24 C         139.3329  144.9205  164.8704 C.3     1  UNL1        0.0585
     25 C         137.9761  144.4389  164.4494 C.3     1  UNL1        0.1824
     26 F         136.7509  144.3892  165.3132 F       1  UNL1       -0.2354
     27 C         138.0598  144.0156  163.0127 C.3     1  UNL1        0.1286
@<TRIPOS>BOND
     1     2     1    1
     2     2     3    1
     3     3     4   ar
     4     4     5   ar
     5     5     6   ar
     6     6     9    1
     7     9    10   ar
     8    10    11   ar
     9    11    12   ar
    10    12    13    1
    11    12    14   ar
    12    14    15   ar
    13     6     7   ar
    14     7     8   ar
    15     2    16    1
    16    16    17    1
    17    16    20    1
    18    20    21    2
    19    20    22   am
    20    22    23    1
    21    23    24    1
    22    24    25    1
    23    25    26    1
    24    25    27    1
    25     8     3   ar
    26    27    22    1
    27    15     9   ar
    28    17    18    1
    29    17    19    1
@<TRIPOS>MOLECULE
*****
 27 29 0 0 0
SMALL
GASTEIGER

@<TRIPOS>ATOM
      1 C         139.1072  138.0879  161.3075 C.3     1  UNL1        0.0066
      2 C         140.3530  138.5773  161.9845 C.3     1  UNL1        0.0454
      3 C         140.2714  139.1977  163.3478 C.ar    1  UNL1       -0.0207
      4 C         140.5415  138.3670  164.5672 C.ar    1  UNL1       -0.0042
      5 C         140.4599  138.9874  165.9305 C.ar    1  UNL1       -0.0003
      6 C         140.1083  140.4385  166.0743 C.ar    1  UNL1       -0.0000
      7 C         139.8382  141.2692  164.8549 C.ar    1  UNL1       -0.0003
      8 C         139.9197  140.6488  163.4917 C.ar    1  UNL1       -0.0042
      9 C         140.0267  141.0589  167.4376 C.ar    1  UNL1        0.0001
     10 C         140.5280  142.4554  167.6573 C.ar    1  UNL1        0.0023
     11 C         140.4464  143.0758  169.0206 C.ar    1  UNL1        0.0296
     12 C         139.8635  142.2996  170.1642 C.ar    1  UNL1        0.1401
     13 F         139.7820  142.9199  171.5274 F       1  UNL1       -0.2042
     14 C         139.3622  140.9030  169.9444 C.ar    1  UNL1        0.0296
     15 C         139.4438  140.2826  168.5811 C.ar    1  UNL1        0.0023
     16 C         141.6804  138.4463  161.2984 C.3     1  UNL1        0.1325
     17 N         142.1039  137.1241  160.7305 N.3     1  UNL1       -0.3148
     18 H         141.3740  136.4319  160.8996 H       1  UNL1        0.1192
     19 H         142.9688  136.8227  161.1793 H       1  UNL1        0.1192
     20 C         142.5842  139.6375  161.1800 C.2     1  UNL1        0.2401
     21 O         142.4565  140.5622  160.0058 O.2     1  UNL1       -0.2734
     22 N         143.6158  139.9041  162.2358 N.am    1  UNL1       -0.2756
     23 C         143.8597  139.0725  163.4601 C.3     1  UNL1        0.0964
     24 C         144.9793  139.7035  164.2337 C.3     1  UNL1        0.0585
     25 C         145.4274  140.9251  163.4874 C.3     1  UNL1        0.1824
     26 F         146.5253  141.8589  163.9029 F       1  UNL1       -0.2354
     27 C         144.5847  141.0491  162.2527 C.3     1  UNL1        0.1286
@<TRIPOS>BOND
     1     2     1    1
     2     2     3    1
     3     3     4   ar
     4     4     5   ar
     5     5     6   ar
     6     6     9    1
     7     9    10   ar
     8    10    11   ar
     9    11    12   ar
    10    12    13    1
    11    12    14   ar
    12    14    15   ar
    13     6     7   ar
    14     7     8   ar
    15     2    16    1
    16    16    17    1
    17    16    20    1
    18    20    21    2
    19    20    22   am
    20    22    23    1
    21    23    24    1
    22    24    25    1
    23    25    26    1
    24    25    27    1
    25     8     3   ar
    26    27    22    1
    27    15     9   ar
    28    17    18    1
    29    17    19    1
@<TRIPOS>MOLECULE
*****
 27 29 0 0 0
SMALL
GASTEIGER

@<TRIPOS>ATOM
      1 C         139.1630  137.8571  162.5582 C.3     1  UNL1        0.0066
      2 C         138.9200  139.3073  162.8541 C.3     1  UNL1        0.0454
      3 C         139.5402  139.9400  164.0647 C.ar    1  UNL1       -0.0207
      4 C         138.7802  139.9907  165.3569 C.ar    1  UNL1       -0.0042
      5 C         139.4003  140.6233  166.5673 C.ar    1  UNL1       -0.0003
      6 C         140.7805  141.2051  166.4855 C.ar    1  UNL1       -0.0000
      7 C         141.5405  141.1544  165.1933 C.ar    1  UNL1       -0.0003
      8 C         140.9203  140.5218  163.9829 C.ar    1  UNL1       -0.0042
      9 C         141.4006  141.8378  167.6960 C.ar    1  UNL1        0.0001
     10 C         142.8397  141.5734  168.0264 C.ar    1  UNL1        0.0023
     11 C         143.4598  142.2060  169.2369 C.ar    1  UNL1        0.0296
     12 C         142.6409  143.1030  170.1170 C.ar    1  UNL1        0.1401
     13 F         143.2609  143.7356  171.3275 F       1  UNL1       -0.2042
     14 C         141.2017  143.3674  169.7867 C.ar    1  UNL1        0.0296
     15 C         140.5816  142.7348  168.5762 C.ar    1  UNL1        0.0023
     16 C         138.0569  140.1251  161.9396 C.3     1  UNL1        0.1325
     17 N         137.0790  139.4471  161.0262 N.3     1  UNL1       -0.3148
     18 H         137.1344  138.4372  161.1581 H       1  UNL1        0.1192
     19 H         137.3030  139.6764  160.0579 H       1  UNL1        0.1192
     20 C         138.1715  141.6206  161.9386 C.2     1  UNL1        0.2401
     21 O         137.1727  142.4500  162.6900 O.2     1  UNL1       -0.2734
     22 N         139.2850  142.2869  161.1860 N.am    1  UNL1       -0.2756
     23 C         140.3524  141.5927  160.3932 C.3     1  UNL1        0.0964
     24 C         141.2536  142.6412  159.8114 C.3     1  UNL1        0.0585
     25 C         140.7432  143.9834  160.2446 C.3     1  UNL1        0.1824
     26 F         141.3439  145.3115  159.8905 F       1  UNL1       -0.2354
     27 C         139.5265  143.7645  161.0942 C.3     1  UNL1        0.1286
@<TRIPOS>BOND
     1     2     1    1
     2     2     3    1
     3     3     4   ar
     4     4     5   ar
     5     5     6   ar
     6     6     9    1
     7     9    10   ar
     8    10    11   ar
     9    11    12   ar
    10    12    13    1
    11    12    14   ar
    12    14    15   ar
    13     6     7   ar
    14     7     8   ar
    15     2    16    1
    16    16    17    1
    17    16    20    1
    18    20    21    2
    19    20    22   am
    20    22    23    1
    21    23    24    1
    22    24    25    1
    23    25    26    1
    24    25    27    1
    25     8     3   ar
    26    27    22    1
    27    15     9   ar
    28    17    18    1
    29    17    19    1
@<TRIPOS>MOLECULE
*****
 27 29 0 0 0
SMALL
GASTEIGER

@<TRIPOS>ATOM
      1 C         143.7864  138.0778  166.7111 C.3     1  UNL1        0.0066
      2 C         142.8300  139.1759  167.0707 C.3     1  UNL1        0.0454
      3 C         142.4052  140.1708  166.0315 C.ar    1  UNL1       -0.0207
      4 C         143.0665  141.5155  165.9659 C.ar    1  UNL1       -0.0042
      5 C         142.6417  142.5102  164.9267 C.ar    1  UNL1       -0.0003
      6 C         141.5556  142.1603  163.9531 C.ar    1  UNL1       -0.0000
      7 C         140.8943  140.8156  164.0187 C.ar    1  UNL1       -0.0003
      8 C         141.3191  139.8208  165.0579 C.ar    1  UNL1       -0.0042
      9 C         141.1308  143.1551  162.9139 C.ar    1  UNL1        0.0001
     10 C         140.9155  142.7136  161.4966 C.ar    1  UNL1        0.0023
     11 C         140.4907  143.7084  160.4574 C.ar    1  UNL1        0.0296
     12 C         140.2812  145.1448  160.8355 C.ar    1  UNL1        0.1401
     13 F         139.8564  146.1396  159.7964 F       1  UNL1       -0.2042
     14 C         140.4965  145.5863  162.2529 C.ar    1  UNL1        0.0296
     15 C         140.9213  144.5915  163.2920 C.ar    1  UNL1        0.0023
     16 C         142.2984  139.2793  168.4695 C.3     1  UNL1        0.1325
     17 N         142.9937  138.5656  169.5908 N.3     1  UNL1       -0.3148
     18 H         143.8022  138.0631  169.2244 H       1  UNL1        0.1192
     19 H         142.3496  137.9037  170.0238 H       1  UNL1        0.1192
     20 C         141.0715  140.0964  168.7471 C.2     1  UNL1        0.2401
     21 O         139.7114  139.5182  168.4904 O.2     1  UNL1       -0.2734
     22 N         141.2046  141.4917  169.2814 N.am    1  UNL1       -0.2756
     23 C         142.4912  142.2003  169.5857 C.3     1  UNL1        0.0964
     24 C         142.1563  143.5699  170.0975 C.3     1  UNL1        0.0585
     25 C         140.6627  143.7078  170.1096 C.3     1  UNL1        0.1824
     26 F         139.8925  144.9176  170.5489 F       1  UNL1       -0.2354
     27 C         140.0746  142.4234  169.6052 C.3     1  UNL1        0.1286
@<TRIPOS>BOND
     1     2     1    1
     2     2     3    1
     3     3     4   ar
     4     4     5   ar
     5     5     6   ar
     6     6     9    1
     7     9    10   ar
     8    10    11   ar
     9    11    12   ar
    10    12    13    1
    11    12    14   ar
    12    14    15   ar
    13     6     7   ar
    14     7     8   ar
    15     2    16    1
    16    16    17    1
    17    16    20    1
    18    20    21    2
    19    20    22   am
    20    22    23    1
    21    23    24    1
    22    24    25    1
    23    25    26    1
    24    25    27    1
    25     8     3   ar
    26    27    22    1
    27    15     9   ar
    28    17    18    1
    29    17    19    1
@<TRIPOS>MOLECULE
*****
 27 29 0 0 0
SMALL
GASTEIGER

@<TRIPOS>ATOM
      1 C         139.6337  146.4403  161.7198 C.3     1  UNL1        0.0066
      2 C         140.3496  145.1309  161.8711 C.3     1  UNL1        0.0454
      3 C         140.3007  144.3960  163.1779 C.ar    1  UNL1       -0.0207
      4 C         141.5725  144.0707  163.9035 C.ar    1  UNL1       -0.0042
      5 C         141.5236  143.3358  165.2102 C.ar    1  UNL1       -0.0003
      6 C         140.2028  142.9263  165.7913 C.ar    1  UNL1       -0.0000
      7 C         138.9309  143.2516  165.0658 C.ar    1  UNL1       -0.0003
      8 C         138.9799  143.9865  163.7591 C.ar    1  UNL1       -0.0042
      9 C         140.1539  142.1914  167.0981 C.ar    1  UNL1        0.0001
     10 C         139.7859  140.7376  167.1277 C.ar    1  UNL1        0.0023
     11 C         139.7370  140.0027  168.4345 C.ar    1  UNL1        0.0296
     12 C         140.0561  140.7217  169.7117 C.ar    1  UNL1        0.1401
     13 F         140.0072  139.9869  171.0184 F       1  UNL1       -0.2042
     14 C         140.4242  142.1756  169.6820 C.ar    1  UNL1        0.0296
     15 C         140.4730  142.9104  168.3753 C.ar    1  UNL1        0.0023
     16 C         141.1144  144.5563  160.7157 C.3     1  UNL1        0.1325
     17 N         141.8673  145.4642  159.7889 N.3     1  UNL1       -0.3148
     18 H         141.7504  146.4314  160.0911 H       1  UNL1        0.1192
     19 H         141.5058  145.3582  158.8410 H       1  UNL1        0.1192
     20 C         141.1264  143.0739  160.4871 C.2     1  UNL1        0.2401
     21 O         139.9017  142.3864  159.9603 O.2     1  UNL1       -0.2734
     22 N         142.3630  142.2790  160.7853 N.am    1  UNL1       -0.2756
     23 C         143.6563  142.8253  161.3135 C.3     1  UNL1        0.0964
     24 C         144.6160  141.6821  161.4623 C.3     1  UNL1        0.0585
     25 C         143.9159  140.4293  161.0262 C.3     1  UNL1        0.1824
     26 F         144.5047  139.0498  161.0111 F       1  UNL1       -0.2354
     27 C         142.5234  140.7982  160.6078 C.3     1  UNL1        0.1286
@<TRIPOS>BOND
     1     2     1    1
     2     2     3    1
     3     3     4   ar
     4     4     5   ar
     5     5     6   ar
     6     6     9    1
     7     9    10   ar
     8    10    11   ar
     9    11    12   ar
    10    12    13    1
    11    12    14   ar
    12    14    15   ar
    13     6     7   ar
    14     7     8   ar
    15     2    16    1
    16    16    17    1
    17    16    20    1
    18    20    21    2
    19    20    22   am
    20    22    23    1
    21    23    24    1
    22    24    25    1
    23    25    26    1
    24    25    27    1
    25     8     3   ar
    26    27    22    1
    27    15     9   ar
    28    17    18    1
    29    17    19    1
@<TRIPOS>MOLECULE
*****
 27 29 0 0 0
SMALL
GASTEIGER

@<TRIPOS>ATOM
      1 C         138.5159  143.4611  161.7552 C.3     1  UNL1        0.0066
      2 C         139.7751  143.9811  162.3828 C.3     1  UNL1        0.0454
      3 C         140.2798  143.3798  163.6611 C.ar    1  UNL1       -0.0207
      4 C         139.6634  143.7747  164.9703 C.ar    1  UNL1       -0.0042
      5 C         140.1681  143.1733  166.2484 C.ar    1  UNL1       -0.0003
      6 C         141.2891  142.1772  166.2173 C.ar    1  UNL1       -0.0000
      7 C         141.9055  141.7823  164.9081 C.ar    1  UNL1       -0.0003
      8 C         141.4008  142.3836  163.6300 C.ar    1  UNL1       -0.0042
      9 C         141.7938  141.5758  167.4956 C.ar    1  UNL1        0.0001
     10 C         141.2242  140.2796  167.9908 C.ar    1  UNL1        0.0023
     11 C         141.7289  139.6783  169.2690 C.ar    1  UNL1        0.0296
     12 C         142.8031  140.3733  170.0520 C.ar    1  UNL1        0.1401
     13 F         143.3078  139.7720  171.3301 F       1  UNL1       -0.2042
     14 C         143.3727  141.6696  169.5567 C.ar    1  UNL1        0.0296
     15 C         142.8680  142.2708  168.2785 C.ar    1  UNL1        0.0023
     16 C         140.5297  145.1025  161.7323 C.3     1  UNL1        0.1325
     17 N         140.2076  146.5253  162.0819 N.3     1  UNL1       -0.3148
     18 H         139.4569  146.5442  162.7721 H       1  UNL1        0.1192
     19 H         139.9104  147.0227  161.2425 H       1  UNL1        0.1192
     20 C         141.6062  144.8012  160.7323 C.2     1  UNL1        0.2401
     21 O         142.9008  144.1929  161.1842 O.2     1  UNL1       -0.2734
     22 N         141.3883  145.1081  159.2803 N.am    1  UNL1       -0.2756
     23 C         140.1528  145.7133  158.6828 C.3     1  UNL1        0.0964
     24 C         140.3685  145.8429  157.2040 C.3     1  UNL1        0.0585
     25 C         141.7375  145.3178  156.8876 C.3     1  UNL1        0.1824
     26 F         142.3659  145.2574  155.5269 F       1  UNL1       -0.2354
     27 C         142.3678  144.8636  158.1708 C.3     1  UNL1        0.1286
@<TRIPOS>BOND
     1     2     1    1
     2     2     3    1
     3     3     4   ar
     4     4     5   ar
     5     5     6   ar
     6     6     9    1
     7     9    10   ar
     8    10    11   ar
     9    11    12   ar
    10    12    13    1
    11    12    14   ar
    12    14    15   ar
    13     6     7   ar
    14     7     8   ar
    15     2    16    1
    16    16    17    1
    17    16    20    1
    18    20    21    2
    19    20    22   am
    20    22    23    1
    21    23    24    1
    22    24    25    1
    23    25    26    1
    24    25    27    1
    25     8     3   ar
    26    27    22    1
    27    15     9   ar
    28    17    18    1
    29    17    19    1
