@<TRIPOS>MOLECULE
*****
 32 37 0 0 0
SMALL
GASTEIGER

@<TRIPOS>ATOM
      1 C         141.3265  140.3712  167.5879 C.3     1  UNL1        0.0013
      2 C         140.5048  139.7725  166.4850 C.3     1  UNL1        0.0135
      3 C         141.9047  140.1274  166.0793 C.3     1  UNL1        0.0016
      4 C         142.3654  139.8741  164.6746 C.3     1  UNL1        0.0044
      5 C         141.4264  139.2660  163.6753 C.3     1  UNL1        0.0220
      6 C         141.8873  139.0128  162.2705 C.ar    1  UNL1       -0.0263
      7 C         143.2871  139.3676  161.8649 C.ar    1  UNL1       -0.0015
      8 C         143.7479  139.1144  160.4601 C.ar    1  UNL1        0.0366
      9 C         142.8088  138.5062  159.4609 C.ar    1  UNL1        0.1382
     10 C         141.4090  138.1514  159.8665 C.ar    1  UNL1        0.0323
     11 C         140.9482  138.4047  161.2713 C.ar    1  UNL1       -0.0231
     12 C         139.5483  138.0498  161.6769 C.3     1  UNL1        0.0261
     13 C         139.0876  138.3031  163.0817 C.3     1  UNL1        0.0050
     14 C         140.0266  138.9112  164.0809 C.3     1  UNL1        0.0044
     15 C         139.5657  139.1644  165.4858 C.3     1  UNL1        0.0016
     16 C         138.2540  138.9207  166.1711 C.3     1  UNL1        0.0014
     17 C         138.3822  139.3782  167.5938 C.3     1  UNL1        0.0160
     18 C         139.7733  139.9047  167.7878 C.3     1  UNL1        0.0574
     19 N         140.3344  140.4649  169.0612 N.3     1  UNL1       -0.2740
     20 C         140.0665  141.8325  169.6160 C.3     1  UNL1        0.0721
     21 C         140.8284  141.9688  170.9010 C.3     1  UNL1        0.0188
     22 C         141.5670  140.6854  171.1402 C.3     1  UNL1        0.0188
     23 C         141.2617  139.7559  170.0031 C.3     1  UNL1        0.0721
     24 O         143.2697  138.2530  158.0560 O.3     1  UNL1       -0.4754
     25 C         142.5806  137.2193  157.2155 C.3     1  UNL1        0.2068
     26 C         143.3810  136.1415  156.5463 C.3     1  UNL1        0.0646
     27 C         142.8390  134.7453  156.4654 C.3     1  UNL1        0.0759
     28 N         143.7461  133.5739  156.6992 N.3     1  UNL1       -0.2726
     29 C         144.0849  132.5077  155.6999 C.3     1  UNL1        0.0721
     30 C         145.0220  131.5378  156.3565 C.3     1  UNL1        0.0188
     31 C         145.2624  132.0046  157.7617 C.3     1  UNL1        0.0188
     32 C         144.4739  133.2629  157.9734 C.3     1  UNL1        0.0721
@<TRIPOS>BOND
     1     2     1    1
     2     2     3    1
     3     3     4    1
     4     5     4    1
     5     5     6    1
     6     6     7   ar
     7     7     8   ar
     8     8     9   ar
     9     9    24    1
    10    24    25    1
    11    25    26    1
    12    26    27    1
    13    27    28    1
    14    28    29    1
    15    29    30    1
    16    30    31    1
    17    31    32    1
    18     9    10   ar
    19    10    11   ar
    20    11    12    1
    21    12    13    1
    22    14    13    1
    23    14    15    1
    24    15    16    1
    25    16    17    1
    26    17    18    1
    27    18    19    1
    28    19    20    1
    29    20    21    1
    30    21    22    1
    31    22    23    1
    32    15     2    1
    33    23    19    1
    34    18     2    1
    35    14     5    1
    36    11     6   ar
    37    32    28    1
@<TRIPOS>MOLECULE
*****
 32 37 0 0 0
SMALL
GASTEIGER

@<TRIPOS>ATOM
      1 C         141.1502  140.4786  167.6591 C.3     1  UNL1        0.0013
      2 C         140.3977  139.8180  166.5423 C.3     1  UNL1        0.0135
      3 C         141.7779  140.2685  166.1653 C.3     1  UNL1        0.0016
      4 C         142.2869  140.0413  164.7728 C.3     1  UNL1        0.0044
      5 C         141.4157  139.3636  163.7571 C.3     1  UNL1        0.0220
      6 C         141.9247  139.1364  162.3644 C.ar    1  UNL1       -0.0263
      7 C         143.3049  139.5869  161.9875 C.ar    1  UNL1       -0.0015
      8 C         143.8138  139.3597  160.5950 C.ar    1  UNL1        0.0366
      9 C         142.9426  138.6820  159.5793 C.ar    1  UNL1        0.1382
     10 C         141.5624  138.2314  159.9562 C.ar    1  UNL1        0.0323
     11 C         141.0535  138.4586  161.3487 C.ar    1  UNL1       -0.0231
     12 C         139.6733  138.0080  161.7257 C.3     1  UNL1        0.0261
     13 C         139.1643  138.2352  163.1183 C.3     1  UNL1        0.0050
     14 C         140.0355  138.9130  164.1340 C.3     1  UNL1        0.0044
     15 C         139.5265  139.1402  165.5266 C.3     1  UNL1        0.0016
     16 C         138.2200  138.8081  166.1843 C.3     1  UNL1        0.0014
     17 C         138.2837  139.2806  167.6065 C.3     1  UNL1        0.0160
     18 C         139.6296  139.9048  167.8277 C.3     1  UNL1        0.0574
     19 N         140.1211  140.5095  169.1094 N.3     1  UNL1       -0.2740
     20 C         139.9406  141.9358  169.5374 C.3     1  UNL1        0.0721
     21 C         140.5873  142.1020  170.8807 C.3     1  UNL1        0.0188
     22 C         141.1674  140.7785  171.2827 C.3     1  UNL1        0.0188
     23 C         140.8793  139.7943  170.1880 C.3     1  UNL1        0.0721
     24 O         143.4516  138.4548  158.1867 O.3     1  UNL1       -0.4754
     25 C         143.0221  139.3638  157.0735 C.3     1  UNL1        0.2068
     26 C         142.8259  140.8279  157.3342 C.3     1  UNL1        0.0646
     27 C         141.4410  141.3833  157.4884 C.3     1  UNL1        0.0759
     28 N         140.8754  141.6183  158.8576 N.3     1  UNL1       -0.2726
     29 C         141.5831  142.2811  160.0021 C.3     1  UNL1        0.0721
     30 C         140.6478  142.3042  161.1745 C.3     1  UNL1        0.0188
     31 C         139.3621  141.6556  160.7547 C.3     1  UNL1        0.0188
     32 C         139.5028  141.2317  159.3227 C.3     1  UNL1        0.0721
@<TRIPOS>BOND
     1     2     1    1
     2     2     3    1
     3     3     4    1
     4     5     4    1
     5     5     6    1
     6     6     7   ar
     7     7     8   ar
     8     8     9   ar
     9     9    24    1
    10    24    25    1
    11    25    26    1
    12    26    27    1
    13    27    28    1
    14    28    29    1
    15    29    30    1
    16    30    31    1
    17    31    32    1
    18     9    10   ar
    19    10    11   ar
    20    11    12    1
    21    12    13    1
    22    14    13    1
    23    14    15    1
    24    15    16    1
    25    16    17    1
    26    17    18    1
    27    18    19    1
    28    19    20    1
    29    20    21    1
    30    21    22    1
    31    22    23    1
    32    15     2    1
    33    23    19    1
    34    18     2    1
    35    14     5    1
    36    11     6   ar
    37    32    28    1
@<TRIPOS>MOLECULE
*****
 32 37 0 0 0
SMALL
GASTEIGER

@<TRIPOS>ATOM
      1 C         141.1025  142.1931  166.9907 C.3     1  UNL1        0.0013
      2 C         140.3254  141.1115  166.3005 C.3     1  UNL1        0.0135
      3 C         141.0526  142.0320  165.3655 C.3     1  UNL1        0.0016
      4 C         140.9598  141.8219  163.8832 C.3     1  UNL1        0.0044
      5 C         140.1399  140.6914  163.3358 C.3     1  UNL1        0.0220
      6 C         140.0472  140.4813  161.8534 C.ar    1  UNL1       -0.0263
      7 C         140.7743  141.4018  160.9186 C.ar    1  UNL1       -0.0015
      8 C         140.6815  141.1917  159.4363 C.ar    1  UNL1        0.0366
      9 C         139.8616  140.0611  158.8889 C.ar    1  UNL1        0.1382
     10 C         139.1345  139.1407  159.8237 C.ar    1  UNL1        0.0323
     11 C         139.2273  139.3508  161.3060 C.ar    1  UNL1       -0.0231
     12 C         138.5001  138.4303  162.2410 C.3     1  UNL1        0.0261
     13 C         138.5929  138.6404  163.7233 C.3     1  UNL1        0.0050
     14 C         139.4128  139.7710  164.2707 C.3     1  UNL1        0.0044
     15 C         139.5055  139.9810  165.7531 C.3     1  UNL1        0.0016
     16 C         138.9038  139.2417  166.9111 C.3     1  UNL1        0.0014
     17 C         139.3518  139.9152  168.1743 C.3     1  UNL1        0.0160
     18 C         140.2304  141.0709  167.7968 C.3     1  UNL1        0.0574
     19 N         140.8970  142.0193  168.7488 N.3     1  UNL1       -0.2740
     20 C         140.3144  143.2992  169.2707 C.3     1  UNL1        0.0721
     21 C         141.3205  143.9254  170.1904 C.3     1  UNL1        0.0188
     22 C         142.5247  143.0324  170.2369 C.3     1  UNL1        0.0188
     23 C         142.2630  141.8544  169.3459 C.3     1  UNL1        0.0721
     24 O         139.7689  139.8511  157.4065 O.3     1  UNL1       -0.4754
     25 C         140.9456  139.3085  156.6509 C.3     1  UNL1        0.2068
     26 C         141.7986  138.2357  157.2605 C.3     1  UNL1        0.0646
     27 C         143.1050  138.5924  157.9056 C.3     1  UNL1        0.0759
     28 N         143.2158  138.6364  159.4008 N.3     1  UNL1       -0.2726
     29 C         144.0130  139.6265  160.1970 C.3     1  UNL1        0.0721
     30 C         143.8388  139.3001  161.6507 C.3     1  UNL1        0.0188
     31 C         142.9337  138.1082  161.7528 C.3     1  UNL1        0.0188
     32 C         142.5487  137.6981  160.3623 C.3     1  UNL1        0.0721
@<TRIPOS>BOND
     1     2     1    1
     2     2     3    1
     3     3     4    1
     4     5     4    1
     5     5     6    1
     6     6     7   ar
     7     7     8   ar
     8     8     9   ar
     9     9    24    1
    10    24    25    1
    11    25    26    1
    12    26    27    1
    13    27    28    1
    14    28    29    1
    15    29    30    1
    16    30    31    1
    17    31    32    1
    18     9    10   ar
    19    10    11   ar
    20    11    12    1
    21    12    13    1
    22    14    13    1
    23    14    15    1
    24    15    16    1
    25    16    17    1
    26    17    18    1
    27    18    19    1
    28    19    20    1
    29    20    21    1
    30    21    22    1
    31    22    23    1
    32    15     2    1
    33    23    19    1
    34    18     2    1
    35    14     5    1
    36    11     6   ar
    37    32    28    1
@<TRIPOS>MOLECULE
*****
 32 37 0 0 0
SMALL
GASTEIGER

@<TRIPOS>ATOM
      1 C         140.6284  141.6193  167.5281 C.3     1  UNL1        0.0013
      2 C         139.8930  141.2467  166.2750 C.3     1  UNL1        0.0135
      3 C         140.7666  142.4577  166.1326 C.3     1  UNL1        0.0016
      4 C         140.8432  143.1770  164.8186 C.3     1  UNL1        0.0044
      5 C         140.0461  142.6853  163.6469 C.3     1  UNL1        0.0220
      6 C         140.1226  143.4047  162.3328 C.ar    1  UNL1       -0.0263
      7 C         140.9962  144.6156  162.1904 C.ar    1  UNL1       -0.0015
      8 C         141.0727  145.3349  160.8764 C.ar    1  UNL1        0.0366
      9 C         140.2756  144.8432  159.7047 C.ar    1  UNL1        0.1382
     10 C         139.4020  143.6322  159.8471 C.ar    1  UNL1        0.0323
     11 C         139.3255  142.9130  161.1611 C.ar    1  UNL1       -0.0231
     12 C         138.4519  141.7019  161.3035 C.3     1  UNL1        0.0261
     13 C         138.3753  140.9827  162.6175 C.3     1  UNL1        0.0050
     14 C         139.1724  141.4744  163.7892 C.3     1  UNL1        0.0044
     15 C         139.0959  140.7550  165.1033 C.3     1  UNL1        0.0016
     16 C         138.3279  139.5432  165.5409 C.3     1  UNL1        0.0014
     17 C         138.6503  139.2859  166.9831 C.3     1  UNL1        0.0160
     18 C         139.6176  140.3388  167.4367 C.3     1  UNL1        0.0574
     19 N         140.2062  140.4620  168.8110 N.3     1  UNL1       -0.2740
     20 C         139.6001  141.2019  169.9665 C.3     1  UNL1        0.0721
     21 C         140.5234  141.0641  171.1407 C.3     1  UNL1        0.0188
     22 C         141.7000  140.2391  170.7107 C.3     1  UNL1        0.0188
     23 C         141.5039  139.8670  169.2709 C.3     1  UNL1        0.0721
     24 O         140.3522  145.5626  158.3906 O.3     1  UNL1       -0.4754
     25 C         141.5442  145.3729  157.5001 C.3     1  UNL1        0.2068
     26 C         142.1568  144.0123  157.3465 C.3     1  UNL1        0.0646
     27 C         143.3499  143.6295  158.1710 C.3     1  UNL1        0.0759
     28 N         143.1835  142.7262  159.3569 N.3     1  UNL1       -0.2726
     29 C         143.8612  142.8821  160.6860 C.3     1  UNL1        0.0721
     30 C         143.4067  141.7607  161.5724 C.3     1  UNL1        0.0188
     31 C         142.4481  140.9116  160.7911 C.3     1  UNL1        0.0188
     32 C         142.3102  141.5084  159.4219 C.3     1  UNL1        0.0721
@<TRIPOS>BOND
     1     2     1    1
     2     2     3    1
     3     3     4    1
     4     5     4    1
     5     5     6    1
     6     6     7   ar
     7     7     8   ar
     8     8     9   ar
     9     9    24    1
    10    24    25    1
    11    25    26    1
    12    26    27    1
    13    27    28    1
    14    28    29    1
    15    29    30    1
    16    30    31    1
    17    31    32    1
    18     9    10   ar
    19    10    11   ar
    20    11    12    1
    21    12    13    1
    22    14    13    1
    23    14    15    1
    24    15    16    1
    25    16    17    1
    26    17    18    1
    27    18    19    1
    28    19    20    1
    29    20    21    1
    30    21    22    1
    31    22    23    1
    32    15     2    1
    33    23    19    1
    34    18     2    1
    35    14     5    1
    36    11     6   ar
    37    32    28    1
@<TRIPOS>MOLECULE
*****
 32 37 0 0 0
SMALL
GASTEIGER

@<TRIPOS>ATOM
      1 C         140.7025  141.7492  167.4226 C.3     1  UNL1        0.0013
      2 C         139.8712  141.2309  166.2866 C.3     1  UNL1        0.0135
      3 C         140.7463  142.3933  165.9216 C.3     1  UNL1        0.0016
      4 C         140.7333  142.9314  164.5216 C.3     1  UNL1        0.0044
      5 C         139.8452  142.3072  163.4864 C.3     1  UNL1        0.0220
      6 C         139.8322  142.8454  162.0863 C.ar    1  UNL1       -0.0263
      7 C         140.7072  144.0077  161.7214 C.ar    1  UNL1       -0.0015
      8 C         140.6942  144.5458  160.3213 C.ar    1  UNL1        0.0366
      9 C         139.8061  143.9216  159.2861 C.ar    1  UNL1        0.1382
     10 C         138.9311  142.7593  159.6510 C.ar    1  UNL1        0.0323
     11 C         138.9441  142.2212  161.0511 C.ar    1  UNL1       -0.0231
     12 C         138.0690  141.0587  161.4160 C.3     1  UNL1        0.0261
     13 C         138.0820  140.5206  162.8161 C.3     1  UNL1        0.0050
     14 C         138.9701  141.1449  163.8512 C.3     1  UNL1        0.0044
     15 C         138.9831  140.6067  165.2514 C.3     1  UNL1        0.0016
     16 C         138.2354  139.4801  165.9006 C.3     1  UNL1        0.0014
     17 C         138.6613  139.4080  167.3370 C.3     1  UNL1        0.0160
     18 C         139.6723  140.4901  167.5755 C.3     1  UNL1        0.0574
     19 N         140.3631  140.7804  168.8750 N.3     1  UNL1       -0.2740
     20 C         141.5742  140.0730  169.4068 C.3     1  UNL1        0.0721
     21 C         141.9238  140.6844  170.7313 C.3     1  UNL1        0.0188
     22 C         140.9287  141.7694  171.0179 C.3     1  UNL1        0.0188
     23 C         139.9641  141.8288  169.8707 C.3     1  UNL1        0.0721
     24 O         139.7931  144.4598  157.8860 O.3     1  UNL1       -0.4754
     25 C         140.3393  145.8279  157.6033 C.3     1  UNL1        0.2068
     26 C         140.1140  146.4632  156.2632 C.3     1  UNL1        0.0646
     27 C         138.8567  147.2386  156.0027 C.3     1  UNL1        0.0759
     28 N         138.9346  148.6864  155.6182 N.3     1  UNL1       -0.2726
     29 C         139.5792  149.2365  154.3804 C.3     1  UNL1        0.0721
     30 C         139.4245  150.7283  154.4012 C.3     1  UNL1        0.0188
     31 C         138.6843  151.1002  155.6517 C.3     1  UNL1        0.0188
     32 C         138.3815  149.8382  156.4038 C.3     1  UNL1        0.0721
@<TRIPOS>BOND
     1     2     1    1
     2     2     3    1
     3     3     4    1
     4     5     4    1
     5     5     6    1
     6     6     7   ar
     7     7     8   ar
     8     8     9   ar
     9     9    24    1
    10    24    25    1
    11    25    26    1
    12    26    27    1
    13    27    28    1
    14    28    29    1
    15    29    30    1
    16    30    31    1
    17    31    32    1
    18     9    10   ar
    19    10    11   ar
    20    11    12    1
    21    12    13    1
    22    14    13    1
    23    14    15    1
    24    15    16    1
    25    16    17    1
    26    17    18    1
    27    18    19    1
    28    19    20    1
    29    20    21    1
    30    21    22    1
    31    22    23    1
    32    15     2    1
    33    23    19    1
    34    18     2    1
    35    14     5    1
    36    11     6   ar
    37    32    28    1
@<TRIPOS>MOLECULE
*****
 32 37 0 0 0
SMALL
GASTEIGER

@<TRIPOS>ATOM
      1 C         140.5644  141.5128  167.4843 C.3     1  UNL1        0.0013
      2 C         139.6986  140.9758  166.3834 C.3     1  UNL1        0.0135
      3 C         140.5866  142.1094  165.9634 C.3     1  UNL1        0.0016
      4 C         140.5523  142.6043  164.5478 C.3     1  UNL1        0.0044
      5 C         139.6300  141.9655  163.5521 C.3     1  UNL1        0.0220
      6 C         139.5956  142.4604  162.1365 C.ar    1  UNL1       -0.0263
      7 C         140.4836  143.5940  161.7166 C.ar    1  UNL1       -0.0015
      8 C         140.4493  144.0888  160.3010 C.ar    1  UNL1        0.0366
      9 C         139.5270  143.4500  159.3053 C.ar    1  UNL1        0.1382
     10 C         138.6390  142.3164  159.7253 C.ar    1  UNL1        0.0323
     11 C         138.6733  141.8216  161.1409 C.ar    1  UNL1       -0.0231
     12 C         137.7853  140.6879  161.5609 C.3     1  UNL1        0.0261
     13 C         137.8197  140.1931  162.9764 C.3     1  UNL1        0.0050
     14 C         138.7420  140.8319  163.9721 C.3     1  UNL1        0.0044
     15 C         138.7763  140.3370  165.3877 C.3     1  UNL1        0.0016
     16 C         138.0226  139.2455  166.0879 C.3     1  UNL1        0.0014
     17 C         138.4791  139.2096  167.5163 C.3     1  UNL1        0.0160
     18 C         139.5149  140.2790  167.6989 C.3     1  UNL1        0.0574
     19 N         140.2398  140.5960  168.9733 N.3     1  UNL1       -0.2740
     20 C         141.5031  139.9458  169.4541 C.3     1  UNL1        0.0721
     21 C         141.8728  140.5667  170.7687 C.3     1  UNL1        0.0188
     22 C         140.8378  141.6005  171.1002 C.3     1  UNL1        0.0188
     23 C         139.8285  141.6186  169.9906 C.3     1  UNL1        0.0721
     24 O         139.4927  143.9449  157.8897 O.3     1  UNL1       -0.4754
     25 C         140.1414  143.1446  156.7995 C.3     1  UNL1        0.2068
     26 C         141.3636  142.3268  157.0952 C.3     1  UNL1        0.0646
     27 C         141.2424  140.8469  157.3077 C.3     1  UNL1        0.0759
     28 N         141.3206  140.2794  158.6939 N.3     1  UNL1       -0.2726
     29 C         140.5502  139.0996  159.2084 C.3     1  UNL1        0.0721
     30 C         140.9364  138.8831  160.6416 C.3     1  UNL1        0.0188
     31 C         141.9454  139.9291  161.0129 C.3     1  UNL1        0.0188
     32 C         142.1829  140.7920  159.8091 C.3     1  UNL1        0.0721
@<TRIPOS>BOND
     1     2     1    1
     2     2     3    1
     3     3     4    1
     4     5     4    1
     5     5     6    1
     6     6     7   ar
     7     7     8   ar
     8     8     9   ar
     9     9    24    1
    10    24    25    1
    11    25    26    1
    12    26    27    1
    13    27    28    1
    14    28    29    1
    15    29    30    1
    16    30    31    1
    17    31    32    1
    18     9    10   ar
    19    10    11   ar
    20    11    12    1
    21    12    13    1
    22    14    13    1
    23    14    15    1
    24    15    16    1
    25    16    17    1
    26    17    18    1
    27    18    19    1
    28    19    20    1
    29    20    21    1
    30    21    22    1
    31    22    23    1
    32    15     2    1
    33    23    19    1
    34    18     2    1
    35    14     5    1
    36    11     6   ar
    37    32    28    1
@<TRIPOS>MOLECULE
*****
 32 37 0 0 0
SMALL
GASTEIGER

@<TRIPOS>ATOM
      1 C         143.6187  141.6593  160.1105 C.3     1  UNL1        0.0013
      2 C         143.3548  140.5153  161.0441 C.3     1  UNL1        0.0135
      3 C         143.5487  141.8333  161.7336 C.3     1  UNL1        0.0016
      4 C         143.4702  141.9160  163.2292 C.3     1  UNL1        0.0044
      5 C         143.1978  140.6807  164.0354 C.3     1  UNL1        0.0220
      6 C         143.1193  140.7634  165.5311 C.ar    1  UNL1       -0.0263
      7 C         143.3132  142.0814  166.2206 C.ar    1  UNL1       -0.0015
      8 C         143.2348  142.1640  167.7162 C.ar    1  UNL1        0.0366
      9 C         142.9624  140.9288  168.5224 C.ar    1  UNL1        0.1382
     10 C         142.7685  139.6108  167.8330 C.ar    1  UNL1        0.0323
     11 C         142.8470  139.5282  166.3373 C.ar    1  UNL1       -0.0231
     12 C         142.6531  138.2102  165.6478 C.3     1  UNL1        0.0261
     13 C         142.7316  138.1275  164.1522 C.3     1  UNL1        0.0050
     14 C         143.0039  139.3628  163.3460 C.3     1  UNL1        0.0044
     15 C         143.0824  139.2800  161.8503 C.3     1  UNL1        0.0016
     16 C         142.9349  138.1293  160.8996 C.3     1  UNL1        0.0014
     17 C         143.1161  138.6533  159.5058 C.3     1  UNL1        0.0160
     18 C         143.3756  140.1280  159.5952 C.3     1  UNL1        0.0574
     19 N         143.6140  141.0528  158.4386 N.3     1  UNL1       -0.2740
     20 C         142.6410  142.0590  157.8992 C.3     1  UNL1        0.0721
     21 C         143.2929  142.7620  156.7455 C.3     1  UNL1        0.0188
     22 C         144.6687  142.1902  156.5720 C.3     1  UNL1        0.0188
     23 C         144.8672  141.1339  157.6183 C.3     1  UNL1        0.0721
     24 O         142.8839  141.0115  170.0181 O.3     1  UNL1       -0.4754
     25 C         141.5485  140.9967  170.7010 C.3     1  UNL1        0.2068
     26 C         140.4900  140.0307  170.2576 C.3     1  UNL1        0.0646
     27 C         139.3073  140.5208  169.4760 C.3     1  UNL1        0.0759
     28 N         139.2963  140.4048  167.9806 N.3     1  UNL1       -0.2726
     29 C         139.7176  141.4686  167.0106 C.3     1  UNL1        0.0721
     30 C         139.5438  140.9260  165.6231 C.3     1  UNL1        0.0188
     31 C         139.0151  139.5267  165.7355 C.3     1  UNL1        0.0188
     32 C         138.8621  139.2047  167.1926 C.3     1  UNL1        0.0721
@<TRIPOS>BOND
     1     2     1    1
     2     2     3    1
     3     3     4    1
     4     5     4    1
     5     5     6    1
     6     6     7   ar
     7     7     8   ar
     8     8     9   ar
     9     9    24    1
    10    24    25    1
    11    25    26    1
    12    26    27    1
    13    27    28    1
    14    28    29    1
    15    29    30    1
    16    30    31    1
    17    31    32    1
    18     9    10   ar
    19    10    11   ar
    20    11    12    1
    21    12    13    1
    22    14    13    1
    23    14    15    1
    24    15    16    1
    25    16    17    1
    26    17    18    1
    27    18    19    1
    28    19    20    1
    29    20    21    1
    30    21    22    1
    31    22    23    1
    32    15     2    1
    33    23    19    1
    34    18     2    1
    35    14     5    1
    36    11     6   ar
    37    32    28    1
@<TRIPOS>MOLECULE
*****
 32 37 0 0 0
SMALL
GASTEIGER

@<TRIPOS>ATOM
      1 C         138.1266  140.4259  159.0244 C.3     1  UNL1        0.0013
      2 C         138.7233  141.3697  160.0260 C.3     1  UNL1        0.0135
      3 C         138.2436  140.0767  160.6162 C.3     1  UNL1        0.0016
      4 C         138.3846  139.8264  162.0884 C.3     1  UNL1        0.0044
      5 C         139.0051  140.8689  162.9705 C.3     1  UNL1        0.0220
      6 C         139.1460  140.6185  164.4428 C.ar    1  UNL1       -0.0263
      7 C         138.6664  139.3256  165.0329 C.ar    1  UNL1       -0.0015
      8 C         138.8073  139.0753  166.5051 C.ar    1  UNL1        0.0366
      9 C         139.4279  140.1178  167.3872 C.ar    1  UNL1        0.1382
     10 C         139.9075  141.4107  166.7970 C.ar    1  UNL1        0.0323
     11 C         139.7666  141.6610  165.3248 C.ar    1  UNL1       -0.0231
     12 C         140.2463  142.9540  164.7346 C.3     1  UNL1        0.0261
     13 C         140.1053  143.2043  163.2624 C.3     1  UNL1        0.0050
     14 C         139.4848  142.1618  162.3803 C.3     1  UNL1        0.0044
     15 C         139.3439  142.4122  160.9081 C.3     1  UNL1        0.0016
     16 C         139.7216  143.5817  160.0482 C.3     1  UNL1        0.0014
     17 C         139.3345  143.2620  158.6347 C.3     1  UNL1        0.0160
     18 C         138.7175  141.8949  158.6211 C.3     1  UNL1        0.0574
     19 N         138.1878  141.1787  157.4142 N.3     1  UNL1       -0.2740
     20 C         138.9432  140.1951  156.5706 C.3     1  UNL1        0.0721
     21 C         138.0320  139.7289  155.4740 C.3     1  UNL1        0.0188
     22 C         136.7135  140.4245  155.6400 C.3     1  UNL1        0.0188
     23 C         136.8098  141.3205  156.8391 C.3     1  UNL1        0.0721
     24 O         139.5688  139.8674  168.8594 O.3     1  UNL1       -0.4754
     25 C         140.9325  139.7534  169.4737 C.3     1  UNL1        0.2068
     26 C         142.1480  140.1193  168.6745 C.3     1  UNL1        0.0646
     27 C         142.7997  139.0978  167.7903 C.3     1  UNL1        0.0759
     28 N         142.7622  139.2626  166.2999 N.3     1  UNL1       -0.2726
     29 C         142.2796  138.2424  165.3119 C.3     1  UNL1        0.0721
     30 C         142.4197  138.8258  163.9372 C.3     1  UNL1        0.0188
     31 C         142.9890  140.2068  164.0756 C.3     1  UNL1        0.0188
     32 C         143.2006  140.4767  165.5359 C.3     1  UNL1        0.0721
@<TRIPOS>BOND
     1     2     1    1
     2     2     3    1
     3     3     4    1
     4     5     4    1
     5     5     6    1
     6     6     7   ar
     7     7     8   ar
     8     8     9   ar
     9     9    24    1
    10    24    25    1
    11    25    26    1
    12    26    27    1
    13    27    28    1
    14    28    29    1
    15    29    30    1
    16    30    31    1
    17    31    32    1
    18     9    10   ar
    19    10    11   ar
    20    11    12    1
    21    12    13    1
    22    14    13    1
    23    14    15    1
    24    15    16    1
    25    16    17    1
    26    17    18    1
    27    18    19    1
    28    19    20    1
    29    20    21    1
    30    21    22    1
    31    22    23    1
    32    15     2    1
    33    23    19    1
    34    18     2    1
    35    14     5    1
    36    11     6   ar
    37    32    28    1
@<TRIPOS>MOLECULE
*****
 32 37 0 0 0
SMALL
GASTEIGER

@<TRIPOS>ATOM
      1 C         140.3569  146.2369  157.0538 C.3     1  UNL1        0.0013
      2 C         139.9915  144.8867  157.5955 C.3     1  UNL1        0.0135
      3 C         140.8871  145.6840  158.4970 C.3     1  UNL1        0.0016
      4 C         141.3338  145.1100  159.8088 C.3     1  UNL1        0.0044
      5 C         140.8850  143.7388  160.2193 C.3     1  UNL1        0.0220
      6 C         141.3317  143.1649  161.5312 C.ar    1  UNL1       -0.0263
      7 C         142.2272  143.9621  162.4326 C.ar    1  UNL1       -0.0015
      8 C         142.6739  143.3882  163.7444 C.ar    1  UNL1        0.0366
      9 C         142.2251  142.0170  164.1549 C.ar    1  UNL1        0.1382
     10 C         141.3297  141.2198  163.2536 C.ar    1  UNL1        0.0323
     11 C         140.8829  141.7937  161.9417 C.ar    1  UNL1       -0.0231
     12 C         139.9874  140.9965  161.0403 C.3     1  UNL1        0.0261
     13 C         139.5407  141.5705  159.7284 C.3     1  UNL1        0.0050
     14 C         139.9895  142.9416  159.3180 C.3     1  UNL1        0.0044
     15 C         139.5427  143.5156  158.0060 C.3     1  UNL1        0.0016
     16 C         138.6671  142.9693  156.9177 C.3     1  UNL1        0.0014
     17 C         138.5746  144.0028  155.8345 C.3     1  UNL1        0.0160
     18 C         139.3932  145.1878  156.2535 C.3     1  UNL1        0.0574
     19 N         139.5805  146.4521  155.4681 N.3     1  UNL1       -0.2740
     20 C         140.4925  146.6316  154.2908 C.3     1  UNL1        0.0721
     21 C         140.3644  148.0492  153.8172 C.3     1  UNL1        0.0188
     22 C         139.3733  148.7456  154.7019 C.3     1  UNL1        0.0188
     23 C         138.8889  147.7585  155.7222 C.3     1  UNL1        0.0721
     24 O         142.6719  141.4431  165.4669 O.3     1  UNL1       -0.4754
     25 C         141.9790  141.8435  166.7355 C.3     1  UNL1        0.2068
     26 C         140.4908  142.0306  166.7504 C.3     1  UNL1        0.0646
     27 C         139.8989  143.3632  166.3986 C.3     1  UNL1        0.0759
     28 N         139.1283  143.5282  165.1223 N.3     1  UNL1       -0.2726
     29 C         139.1481  144.7337  164.2299 C.3     1  UNL1        0.0721
     30 C         138.2347  144.4671  163.0703 C.3     1  UNL1        0.0188
     31 C         137.6504  143.0968  163.2461 C.3     1  UNL1        0.0188
     32 C         138.2027  142.5165  164.5142 C.3     1  UNL1        0.0721
@<TRIPOS>BOND
     1     2     1    1
     2     2     3    1
     3     3     4    1
     4     5     4    1
     5     5     6    1
     6     6     7   ar
     7     7     8   ar
     8     8     9   ar
     9     9    24    1
    10    24    25    1
    11    25    26    1
    12    26    27    1
    13    27    28    1
    14    28    29    1
    15    29    30    1
    16    30    31    1
    17    31    32    1
    18     9    10   ar
    19    10    11   ar
    20    11    12    1
    21    12    13    1
    22    14    13    1
    23    14    15    1
    24    15    16    1
    25    16    17    1
    26    17    18    1
    27    18    19    1
    28    19    20    1
    29    20    21    1
    30    21    22    1
    31    22    23    1
    32    15     2    1
    33    23    19    1
    34    18     2    1
    35    14     5    1
    36    11     6   ar
    37    32    28    1
