@<TRIPOS>MOLECULE
*****
 30 33 0 0 0
SMALL
GASTEIGER

@<TRIPOS>ATOM
      1 C         140.3818  140.1702  160.5586 C.2     1  UNL1        0.0620
      2 C         141.7452  139.7401  160.1044 C.2     1  UNL1        0.0622
      3 C         141.8913  138.8661  158.8941 C.2     1  UNL1        0.2254
      4 N         143.0963  138.2872  158.2138 N.2     1  UNL1       -0.0319
      5 C         142.6238  137.4856  157.0372 C.2     1  UNL1        0.4061
      6 N         141.1269  137.5692  156.9904 N.2     1  UNL1       -0.0486
      7 C         140.6741  138.4224  158.1380 C.3     1  UNL1        0.3025
      8 C         139.3108  138.8526  158.5922 C.2     1  UNL1        0.0474
      9 C         139.1647  139.7265  159.8025 C.2     1  UNL1        0.0714
     10 CL        137.8013  140.1567  160.2568 Cl      1  UNL1       -0.0811
     11 N         139.9433  142.7922  164.1895 N.3     1  UNL1       -0.2698
     12 C         140.0223  143.4087  162.8244 C.3     1  UNL1        0.0938
     13 C         140.1684  142.5347  161.6141 C.3     1  UNL1        0.1081
     14 N         140.2356  141.0442  161.7690 N.pl3   1  UNL1       -0.3039
     15 C         140.1566  140.4277  163.1341 C.3     1  UNL1        0.1081
     16 C         140.0104  141.3017  164.3444 C.3     1  UNL1        0.0938
     17 C         138.8377  144.8190  165.3811 C.3     1  UNL1        0.0188
     18 C         139.7971  143.6660  165.3999 C.3     1  UNL1        0.0722
     19 C         143.4953  136.7327  156.0762 C.2     1  UNL1        0.2592
     20 O         144.8262  137.2944  155.6723 O.2     1  UNL1       -0.2832
     21 C         143.0359  135.4179  155.5190 C.3     1  UNL1        0.0634
     22 C         142.8440  136.2922  154.3154 C.3     1  UNL1        0.0080
     23 C         143.3873  135.0002  156.9162 C.3     1  UNL1        0.0099
     24 C         143.2127  133.5714  157.3382 C.3     1  UNL1        0.0273
     25 C         142.6867  132.5603  156.3630 C.3     1  UNL1        0.0884
     26 C         142.2273  131.2456  155.8059 C.3     1  UNL1        0.0293
     27 O         142.8786  131.6861  157.5667 O.3     1  UNL1       -0.3867
     28 C         142.3353  132.9781  154.9659 C.3     1  UNL1        0.0273
     29 C         142.5099  134.4068  154.5439 C.3     1  UNL1        0.0099
     30 H         143.2249  132.2176  158.3004 H       1  UNL1        0.2102
@<TRIPOS>BOND
     1    17    18    1
     2    18    11    1
     3    11    12    1
     4    12    13    1
     5    13    14    1
     6    14     1    1
     7     1     2    2
     8     2     3    1
     9     3     4    2
    10     4     5    1
    11     5    19    1
    12    19    20    2
    13    19    21    1
    14    21    22    1
    15    21    23    1
    16    23    24    1
    17    24    25    1
    18    25    26    1
    19    25    27    1
    20    25    28    1
    21    28    29    1
    22     5     6    2
    23     6     7    1
    24     7     8    1
    25     8     9    2
    26     9    10    1
    27    14    15    1
    28    15    16    1
    29    16    11    1
    30     9     1    1
    31     7     3    1
    32    29    21    1
    33    27    30    1
@<TRIPOS>MOLECULE
*****
 30 33 0 0 0
SMALL
GASTEIGER

@<TRIPOS>ATOM
      1 C         140.3798  143.8682  160.8072 C.2     1  UNL1        0.0620
      2 C         140.6695  142.4305  161.1225 C.2     1  UNL1        0.0622
      3 C         140.5452  141.9321  162.5317 C.2     1  UNL1        0.2254
      4 N         140.7639  140.5788  163.1406 N.2     1  UNL1       -0.0319
      5 C         140.4851  140.6816  164.6109 C.2     1  UNL1        0.4061
      6 N         140.0941  142.0984  164.9107 N.2     1  UNL1       -0.0486
      7 C         140.1312  142.8712  163.6257 C.3     1  UNL1        0.3025
      8 C         139.8416  144.3088  163.3103 C.2     1  UNL1        0.0474
      9 C         139.9659  144.8073  161.9011 C.2     1  UNL1        0.0714
     10 CL        139.6762  146.2449  161.5858 Cl      1  UNL1       -0.0811
     11 N         140.7527  145.3637  156.5793 N.3     1  UNL1       -0.2698
     12 C         141.7234  145.8241  157.6260 C.3     1  UNL1        0.0938
     13 C         141.5991  145.3257  159.0353 C.3     1  UNL1        0.1081
     14 N         140.5041  144.3667  159.3978 N.pl3   1  UNL1       -0.3039
     15 C         139.5334  143.9062  158.3511 C.3     1  UNL1        0.1081
     16 C         139.6577  144.4047  156.9418 C.3     1  UNL1        0.0938
     17 C         140.2126  147.1452  154.7670 C.3     1  UNL1        0.0188
     18 C         140.8770  145.8621  155.1700 C.3     1  UNL1        0.0722
     19 C         140.5806  139.5638  165.6066 C.2     1  UNL1        0.2592
     20 O         140.0749  138.1972  165.2508 O.2     1  UNL1       -0.2832
     21 C         141.1817  139.8126  166.9582 C.3     1  UNL1        0.0634
     22 C         142.4307  139.6608  166.1416 C.3     1  UNL1        0.0080
     23 C         139.7239  139.8780  167.3054 C.3     1  UNL1        0.0099
     24 C         139.3009  140.1396  168.7206 C.3     1  UNL1        0.0273
     25 C         140.3359  140.3357  169.7886 C.3     1  UNL1        0.0884
     26 C         140.9370  140.5845  171.1402 C.3     1  UNL1        0.0293
     27 O         139.0868  140.4875  170.6052 O.3     1  UNL1       -0.3867
     28 C         141.7936  140.2703  169.4413 C.3     1  UNL1        0.0273
     29 C         142.2166  140.0088  168.0261 C.3     1  UNL1        0.0099
     30 H         138.3112  140.3825  170.0323 H       1  UNL1        0.2102
@<TRIPOS>BOND
     1    17    18    1
     2    18    11    1
     3    11    12    1
     4    12    13    1
     5    13    14    1
     6    14     1    1
     7     1     2    2
     8     2     3    1
     9     3     4    2
    10     4     5    1
    11     5    19    1
    12    19    20    2
    13    19    21    1
    14    21    22    1
    15    21    23    1
    16    23    24    1
    17    24    25    1
    18    25    26    1
    19    25    27    1
    20    25    28    1
    21    28    29    1
    22     5     6    2
    23     6     7    1
    24     7     8    1
    25     8     9    2
    26     9    10    1
    27    14    15    1
    28    15    16    1
    29    16    11    1
    30     9     1    1
    31     7     3    1
    32    29    21    1
    33    27    30    1
@<TRIPOS>MOLECULE
*****
 30 33 0 0 0
SMALL
GASTEIGER

@<TRIPOS>ATOM
      1 C         141.1453  139.2864  160.4832 C.2     1  UNL1        0.0620
      2 C         140.8310  138.5535  161.7537 C.2     1  UNL1        0.0622
      3 C         140.7727  139.2984  163.0544 C.2     1  UNL1        0.2254
      4 N         140.4890  138.8484  164.4569 N.2     1  UNL1       -0.0319
      5 C         140.5696  140.0480  165.3538 C.2     1  UNL1        0.4061
      6 N         140.9031  141.2394  164.5056 N.2     1  UNL1       -0.0486
      7 C         141.0286  140.7761  163.0845 C.3     1  UNL1        0.3025
      8 C         141.3429  141.5089  161.8140 C.2     1  UNL1        0.0474
      9 C         141.4012  140.7640  160.5133 C.2     1  UNL1        0.0714
     10 CL        141.7155  141.4968  159.2428 Cl      1  UNL1       -0.0811
     11 N         141.3202  137.0516  156.5812 N.3     1  UNL1       -0.2698
     12 C         140.0272  137.6568  157.0415 C.3     1  UNL1        0.0938
     13 C         139.9689  138.4017  158.3422 C.3     1  UNL1        0.1081
     14 N         141.2036  138.5414  159.1825 N.pl3   1  UNL1       -0.3039
     15 C         142.4966  137.9362  158.7221 C.3     1  UNL1        0.1081
     16 C         142.5549  137.1913  157.4215 C.3     1  UNL1        0.0938
     17 C         141.4022  134.8069  155.2756 C.3     1  UNL1        0.0188
     18 C         141.3786  136.3067  155.2805 C.3     1  UNL1        0.0722
     19 C         140.3545  140.0550  166.8383 C.2     1  UNL1        0.2592
     20 O         139.0646  139.5477  167.4116 O.2     1  UNL1       -0.2832
     21 C         141.4293  140.5693  167.7494 C.3     1  UNL1        0.0634
     22 C         142.1251  139.3702  167.1767 C.3     1  UNL1        0.0080
     23 C         140.3602  141.5898  168.0058 C.3     1  UNL1        0.0099
     24 C         140.6076  142.7081  168.9743 C.3     1  UNL1        0.0273
     25 C         141.9241  142.8059  169.6866 C.3     1  UNL1        0.0884
     26 C         142.9990  143.3202  170.5978 C.3     1  UNL1        0.0293
     27 O         141.2283  144.0050  170.2594 O.3     1  UNL1       -0.3867
     28 C         142.9932  141.7855  169.4303 C.3     1  UNL1        0.0273
     29 C         142.7458  140.6671  168.4617 C.3     1  UNL1        0.0099
     30 H         140.3381  144.0740  169.8803 H       1  UNL1        0.2102
@<TRIPOS>BOND
     1    17    18    1
     2    18    11    1
     3    11    12    1
     4    12    13    1
     5    13    14    1
     6    14     1    1
     7     1     2    2
     8     2     3    1
     9     3     4    2
    10     4     5    1
    11     5    19    1
    12    19    20    2
    13    19    21    1
    14    21    22    1
    15    21    23    1
    16    23    24    1
    17    24    25    1
    18    25    26    1
    19    25    27    1
    20    25    28    1
    21    28    29    1
    22     5     6    2
    23     6     7    1
    24     7     8    1
    25     8     9    2
    26     9    10    1
    27    14    15    1
    28    15    16    1
    29    16    11    1
    30     9     1    1
    31     7     3    1
    32    29    21    1
    33    27    30    1
@<TRIPOS>MOLECULE
*****
 30 33 0 0 0
SMALL
GASTEIGER

@<TRIPOS>ATOM
      1 C         138.5647  140.3614  159.3447 C.2     1  UNL1        0.0620
      2 C         138.1525  140.6786  160.7517 C.2     1  UNL1        0.0622
      3 C         138.4778  139.7237  161.8618 C.2     1  UNL1        0.2254
      4 N         138.2022  139.7666  163.3357 N.2     1  UNL1       -0.0319
      5 C         138.7693  138.5211  163.9497 C.2     1  UNL1        0.4061
      6 N         139.3954  137.7084  162.8554 N.2     1  UNL1       -0.0486
      7 C         139.2152  138.4516  161.5650 C.3     1  UNL1        0.3025
      8 C         139.6274  138.1345  160.1580 C.2     1  UNL1        0.0474
      9 C         139.3021  139.0894  159.0479 C.2     1  UNL1        0.0714
     10 CL        139.7143  138.7722  157.6409 Cl      1  UNL1       -0.0811
     11 N         137.5889  143.2261  156.0144 N.3     1  UNL1       -0.2698
     12 C         138.7676  143.4851  156.9052 C.3     1  UNL1        0.0938
     13 C         139.0929  142.5302  158.0153 C.3     1  UNL1        0.1081
     14 N         138.2394  141.3163  158.2346 N.pl3   1  UNL1       -0.3039
     15 C         137.0607  141.0573  157.3438 C.3     1  UNL1        0.1081
     16 C         136.7355  142.0122  156.2336 C.3     1  UNL1        0.0938
     17 C         137.7999  145.5814  154.9382 C.3     1  UNL1        0.0188
     18 C         137.2636  144.1810  154.9042 C.3     1  UNL1        0.0722
     19 C         138.7191  138.1529  165.4029 C.2     1  UNL1        0.2592
     20 O         138.1716  136.8203  165.8205 O.2     1  UNL1       -0.2832
     21 C         139.2164  139.1173  166.4386 C.3     1  UNL1        0.0634
     22 C         137.8218  138.8906  166.9422 C.3     1  UNL1        0.0080
     23 C         140.4384  139.0090  165.5753 C.3     1  UNL1        0.0099
     24 C         141.6734  139.7864  165.9226 C.3     1  UNL1        0.0273
     25 C         141.6863  140.6721  167.1332 C.3     1  UNL1        0.0884
     26 C         142.1837  141.6364  168.1689 C.3     1  UNL1        0.0293
     27 O         143.0810  140.8987  166.6296 O.3     1  UNL1       -0.3867
     28 C         140.4644  140.7803  167.9964 C.3     1  UNL1        0.0273
     29 C         139.2295  140.0029  167.6491 C.3     1  UNL1        0.0099
     30 H         143.2236  140.3749  165.8258 H       1  UNL1        0.2102
@<TRIPOS>BOND
     1    17    18    1
     2    18    11    1
     3    11    12    1
     4    12    13    1
     5    13    14    1
     6    14     1    1
     7     1     2    2
     8     2     3    1
     9     3     4    2
    10     4     5    1
    11     5    19    1
    12    19    20    2
    13    19    21    1
    14    21    22    1
    15    21    23    1
    16    23    24    1
    17    24    25    1
    18    25    26    1
    19    25    27    1
    20    25    28    1
    21    28    29    1
    22     5     6    2
    23     6     7    1
    24     7     8    1
    25     8     9    2
    26     9    10    1
    27    14    15    1
    28    15    16    1
    29    16    11    1
    30     9     1    1
    31     7     3    1
    32    29    21    1
    33    27    30    1
@<TRIPOS>MOLECULE
*****
 30 33 0 0 0
SMALL
GASTEIGER

@<TRIPOS>ATOM
      1 C         139.7838  143.2867  158.5108 C.2     1  UNL1        0.0620
      2 C         138.9558  142.0387  158.5969 C.2     1  UNL1        0.0622
      3 C         137.9351  141.7415  157.5388 C.2     1  UNL1        0.2254
      4 N         136.9796  140.5993  157.3587 N.2     1  UNL1       -0.0319
      5 C         136.1962  140.8440  156.1031 C.2     1  UNL1        0.4061
      6 N         136.6675  142.1374  155.5073 N.2     1  UNL1       -0.0486
      7 C         137.7422  142.6921  156.3946 C.3     1  UNL1        0.3025
      8 C         138.5702  143.9400  156.3086 C.2     1  UNL1        0.0474
      9 C         139.5909  144.2372  157.3667 C.2     1  UNL1        0.0714
     10 CL        140.4188  145.4851  157.2806 Cl      1  UNL1       -0.0811
     11 N         142.8461  144.1784  161.6853 N.3     1  UNL1       -0.2698
     12 C         143.1930  143.2709  160.5425 C.3     1  UNL1        0.0938
     13 C         142.1722  142.9737  159.4843 C.3     1  UNL1        0.1081
     14 N         140.8046  143.5839  159.5690 N.pl3   1  UNL1       -0.3039
     15 C         140.4577  144.4915  160.7119 C.3     1  UNL1        0.1081
     16 C         141.4785  144.7887  161.7700 C.3     1  UNL1        0.0938
     17 C         143.4574  145.1775  164.0044 C.3     1  UNL1        0.0188
     18 C         143.8668  144.4757  162.7434 C.3     1  UNL1        0.0722
     19 C         135.1289  139.9520  155.5419 C.2     1  UNL1        0.2592
     20 O         135.5078  138.7155  154.7819 O.2     1  UNL1       -0.2832
     21 C         133.6825  140.2964  155.7405 C.3     1  UNL1        0.0634
     22 C         134.0326  141.2625  154.6478 C.3     1  UNL1        0.0080
     23 C         133.8348  139.2106  156.7643 C.3     1  UNL1        0.0099
     24 C         132.6623  138.8048  157.6072 C.3     1  UNL1        0.0273
     25 C         131.3375  139.4848  157.4264 C.3     1  UNL1        0.0884
     26 C         129.8911  139.8292  157.6251 C.3     1  UNL1        0.0293
     27 O         130.9874  138.5186  158.5191 O.3     1  UNL1       -0.3867
     28 C         131.1853  140.5704  156.4027 C.3     1  UNL1        0.0273
     29 C         132.3578  140.9763  155.5597 C.3     1  UNL1        0.0099
     30 H         131.7697  137.9933  158.7491 H       1  UNL1        0.2102
@<TRIPOS>BOND
     1    17    18    1
     2    18    11    1
     3    11    12    1
     4    12    13    1
     5    13    14    1
     6    14     1    1
     7     1     2    2
     8     2     3    1
     9     3     4    2
    10     4     5    1
    11     5    19    1
    12    19    20    2
    13    19    21    1
    14    21    22    1
    15    21    23    1
    16    23    24    1
    17    24    25    1
    18    25    26    1
    19    25    27    1
    20    25    28    1
    21    28    29    1
    22     5     6    2
    23     6     7    1
    24     7     8    1
    25     8     9    2
    26     9    10    1
    27    14    15    1
    28    15    16    1
    29    16    11    1
    30     9     1    1
    31     7     3    1
    32    29    21    1
    33    27    30    1
@<TRIPOS>MOLECULE
*****
 30 33 0 0 0
SMALL
GASTEIGER

@<TRIPOS>ATOM
      1 C         142.4499  143.5203  158.6362 C.2     1  UNL1        0.0620
      2 C         141.9931  142.6644  159.7803 C.2     1  UNL1        0.0622
      3 C         140.9032  143.1481  160.6903 C.2     1  UNL1        0.2254
      4 N         140.2496  142.5299  161.8905 N.2     1  UNL1       -0.0319
      5 C         139.2126  143.4874  162.3983 C.2     1  UNL1        0.4061
      6 N         139.2253  144.6974  161.5119 N.2     1  UNL1       -0.0486
      7 C         140.2702  144.4877  160.4563 C.3     1  UNL1        0.3025
      8 C         140.7270  145.3435  159.3122 C.2     1  UNL1        0.0474
      9 C         141.8168  144.8598  158.4022 C.2     1  UNL1        0.0714
     10 CL        142.2736  145.7156  157.2581 Cl      1  UNL1       -0.0811
     11 N         145.7194  142.0689  155.9060 N.3     1  UNL1       -0.2698
     12 C         144.3496  142.3395  155.3579 C.3     1  UNL1        0.0938
     13 C         143.2598  142.8233  156.2679 C.3     1  UNL1        0.1081
     14 N         143.5398  143.0365  157.7261 N.pl3   1  UNL1       -0.3039
     15 C         144.9096  142.7659  158.2742 C.3     1  UNL1        0.1081
     16 C         145.9994  142.2821  157.3641 C.3     1  UNL1        0.0938
     17 C         148.2444  141.7005  155.4172 C.3     1  UNL1        0.0188
     18 C         146.8093  141.5852  154.9960 C.3     1  UNL1        0.0722
     19 C         138.3197  143.2726  163.5842 C.2     1  UNL1        0.2592
     20 O         137.2427  144.2671  163.9020 O.2     1  UNL1       -0.2832
     21 C         138.5036  142.0632  164.4523 C.3     1  UNL1        0.0634
     22 C         137.5348  141.5166  163.4461 C.3     1  UNL1        0.0080
     23 C         139.4086  143.0299  165.1571 C.3     1  UNL1        0.0099
     24 C         140.1611  142.5974  166.3805 C.3     1  UNL1        0.0273
     25 C         140.0086  141.1981  166.8991 C.3     1  UNL1        0.0884
     26 C         140.1926  139.9888  167.7672 C.3     1  UNL1        0.0293
     27 O         140.9775  141.7448  167.9053 O.3     1  UNL1       -0.3867
     28 C         139.1036  140.2316  166.1944 C.3     1  UNL1        0.0273
     29 C         138.3511  140.6641  164.9710 C.3     1  UNL1        0.0099
     30 H         141.1766  142.6701  167.6929 H       1  UNL1        0.2102
@<TRIPOS>BOND
     1    17    18    1
     2    18    11    1
     3    11    12    1
     4    12    13    1
     5    13    14    1
     6    14     1    1
     7     1     2    2
     8     2     3    1
     9     3     4    2
    10     4     5    1
    11     5    19    1
    12    19    20    2
    13    19    21    1
    14    21    22    1
    15    21    23    1
    16    23    24    1
    17    24    25    1
    18    25    26    1
    19    25    27    1
    20    25    28    1
    21    28    29    1
    22     5     6    2
    23     6     7    1
    24     7     8    1
    25     8     9    2
    26     9    10    1
    27    14    15    1
    28    15    16    1
    29    16    11    1
    30     9     1    1
    31     7     3    1
    32    29    21    1
    33    27    30    1
@<TRIPOS>MOLECULE
*****
 30 33 0 0 0
SMALL
GASTEIGER

@<TRIPOS>ATOM
      1 C         140.4019  143.1503  164.4540 C.2     1  UNL1        0.0620
      2 C         141.1346  142.7969  163.1936 C.2     1  UNL1        0.0622
      3 C         140.9478  143.6286  161.9594 C.2     1  UNL1        0.2254
      4 N         141.5317  143.5251  160.5815 N.2     1  UNL1       -0.0319
      5 C         140.9732  144.6461  159.7561 C.2     1  UNL1        0.4061
      6 N         140.0442  145.4424  160.6237 N.2     1  UNL1       -0.0486
      7 C         140.0285  144.8136  161.9854 C.3     1  UNL1        0.3025
      8 C         139.2959  145.1669  163.2458 C.2     1  UNL1        0.0474
      9 C         139.4826  144.3352  164.4800 C.2     1  UNL1        0.0714
     10 CL        138.7500  144.6886  165.7404 Cl      1  UNL1       -0.0811
     11 N         140.9621  140.6552  168.1569 N.3     1  UNL1       -0.2698
     12 C         141.9842  141.6890  167.7874 C.3     1  UNL1        0.0938
     13 C         141.7975  142.5207  166.5531 C.3     1  UNL1        0.1081
     14 N         140.5886  142.3186  165.6883 N.pl3   1  UNL1       -0.3039
     15 C         139.5665  141.2848  166.0578 C.3     1  UNL1        0.1081
     16 C         139.7532  140.4531  167.2921 C.3     1  UNL1        0.0938
     17 C         142.5307  139.5243  169.8920 C.3     1  UNL1        0.0188
     18 C         141.1487  139.8235  169.3911 C.3     1  UNL1        0.0722
     19 C         141.2883  144.9223  158.3158 C.2     1  UNL1        0.2592
     20 O         142.4951  145.7368  157.9550 O.2     1  UNL1       -0.2832
     21 C         140.3967  144.3840  157.2364 C.3     1  UNL1        0.0634
     22 C         141.0433  143.1119  157.6985 C.3     1  UNL1        0.0080
     23 C         140.0597  145.8431  157.1491 C.3     1  UNL1        0.0099
     24 C         139.0557  146.3221  156.1428 C.3     1  UNL1        0.0273
     25 C         138.3886  145.3419  155.2239 C.3     1  UNL1        0.0884
     26 C         137.4970  144.8037  154.1444 C.3     1  UNL1        0.0293
     27 O         137.7420  146.6141  154.7617 O.3     1  UNL1       -0.3867
     28 C         138.7256  143.8830  155.3112 C.3     1  UNL1        0.0273
     29 C         139.7297  143.4039  156.3174 C.3     1  UNL1        0.0099
     30 H         138.0851  147.3583  155.2807 H       1  UNL1        0.2102
@<TRIPOS>BOND
     1    17    18    1
     2    18    11    1
     3    11    12    1
     4    12    13    1
     5    13    14    1
     6    14     1    1
     7     1     2    2
     8     2     3    1
     9     3     4    2
    10     4     5    1
    11     5    19    1
    12    19    20    2
    13    19    21    1
    14    21    22    1
    15    21    23    1
    16    23    24    1
    17    24    25    1
    18    25    26    1
    19    25    27    1
    20    25    28    1
    21    28    29    1
    22     5     6    2
    23     6     7    1
    24     7     8    1
    25     8     9    2
    26     9    10    1
    27    14    15    1
    28    15    16    1
    29    16    11    1
    30     9     1    1
    31     7     3    1
    32    29    21    1
    33    27    30    1
@<TRIPOS>MOLECULE
*****
 30 33 0 0 0
SMALL
GASTEIGER

@<TRIPOS>ATOM
      1 C         141.2676  139.2148  160.6615 C.2     1  UNL1        0.0620
      2 C         141.8277  138.5158  161.8648 C.2     1  UNL1        0.0622
      3 C         141.8619  139.2164  163.1907 C.2     1  UNL1        0.2254
      4 N         142.3508  138.7849  164.5415 N.2     1  UNL1       -0.0319
      5 C         142.1270  139.9176  165.4990 C.2     1  UNL1        0.4061
      6 N         141.4998  141.0492  164.7399 N.2     1  UNL1       -0.0486
      7 C         141.3360  140.6158  163.3133 C.3     1  UNL1        0.3025
      8 C         140.7759  141.3147  162.1100 C.2     1  UNL1        0.0474
      9 C         140.7417  140.6141  160.7841 C.2     1  UNL1        0.0714
     10 CL        140.1815  141.3130  159.5808 Cl      1  UNL1       -0.0811
     11 N         141.1650  137.1130  156.6837 N.3     1  UNL1       -0.2698
     12 C         139.9027  137.6741  157.2683 C.3     1  UNL1        0.0938
     13 C         139.9369  138.3746  158.5942 C.3     1  UNL1        0.1081
     14 N         141.2334  138.5141  159.3355 N.pl3   1  UNL1       -0.3039
     15 C         142.4957  137.9531  158.7510 C.3     1  UNL1        0.1081
     16 C         142.4615  137.2525  157.4251 C.3     1  UNL1        0.0938
     17 C         141.5036  134.9624  155.2660 C.3     1  UNL1        0.0188
     18 C         141.1309  136.4124  155.3579 C.3     1  UNL1        0.0722
     19 C         142.4701  139.9187  166.9592 C.2     1  UNL1        0.2592
     20 O         143.2208  138.7643  167.5541 O.2     1  UNL1       -0.2832
     21 C         142.0624  141.0740  167.8247 C.3     1  UNL1        0.0634
     22 C         143.2566  141.6700  167.1401 C.3     1  UNL1        0.0080
     23 C         141.0098  140.0767  168.2087 C.3     1  UNL1        0.0099
     24 C         139.9642  140.4418  169.2204 C.3     1  UNL1        0.0273
     25 C         139.9713  141.8042  169.8481 C.3     1  UNL1        0.0884
     26 C         139.5637  142.9595  170.7135 C.3     1  UNL1        0.0293
     27 O         138.7772  141.2082  170.5327 O.3     1  UNL1       -0.3867
     28 C         141.0239  142.8014  169.4640 C.3     1  UNL1        0.0273
     29 C         142.0695  142.4363  168.4523 C.3     1  UNL1        0.0099
     30 H         138.6438  140.3004  170.2181 H       1  UNL1        0.2102
@<TRIPOS>BOND
     1    17    18    1
     2    18    11    1
     3    11    12    1
     4    12    13    1
     5    13    14    1
     6    14     1    1
     7     1     2    2
     8     2     3    1
     9     3     4    2
    10     4     5    1
    11     5    19    1
    12    19    20    2
    13    19    21    1
    14    21    22    1
    15    21    23    1
    16    23    24    1
    17    24    25    1
    18    25    26    1
    19    25    27    1
    20    25    28    1
    21    28    29    1
    22     5     6    2
    23     6     7    1
    24     7     8    1
    25     8     9    2
    26     9    10    1
    27    14    15    1
    28    15    16    1
    29    16    11    1
    30     9     1    1
    31     7     3    1
    32    29    21    1
    33    27    30    1
@<TRIPOS>MOLECULE
*****
 30 33 0 0 0
SMALL
GASTEIGER

@<TRIPOS>ATOM
      1 C         141.6128  139.5565  162.7573 C.2     1  UNL1        0.0620
      2 C         142.7561  139.2357  161.8406 C.2     1  UNL1        0.0622
      3 C         142.4871  138.7930  160.4329 C.2     1  UNL1        0.2254
      4 N         143.4036  138.4114  159.3084 N.2     1  UNL1       -0.0319
      5 C         142.5578  138.0536  158.1224 C.2     1  UNL1        0.4061
      6 N         141.1187  138.2140  158.5139 N.2     1  UNL1       -0.0486
      7 C         141.0750  138.6710  159.9419 C.3     1  UNL1        0.3025
      8 C         139.9319  138.9918  160.8586 C.2     1  UNL1        0.0474
      9 C         140.2008  139.4346  162.2662 C.2     1  UNL1        0.0714
     10 CL        139.0576  139.7554  163.1829 Cl      1  UNL1       -0.0811
     11 N         142.4196  140.8849  166.9804 N.3     1  UNL1       -0.2698
     12 C         142.0457  139.4593  166.7011 C.3     1  UNL1        0.0938
     13 C         141.7767  139.0166  165.2934 C.3     1  UNL1        0.1081
     14 N         141.8818  139.9993  164.1651 N.pl3   1  UNL1       -0.3039
     15 C         142.2557  141.4249  164.4444 C.3     1  UNL1        0.1081
     16 C         142.5246  141.8676  165.8521 C.3     1  UNL1        0.0938
     17 C         142.7649  140.3144  169.4915 C.3     1  UNL1        0.0188
     18 C         142.6885  141.3277  168.3881 C.3     1  UNL1        0.0722
     19 C         143.0626  137.6127  156.7804 C.2     1  UNL1        0.2592
     20 O         144.2862  138.2509  156.1927 O.2     1  UNL1       -0.2832
     21 C         142.3437  136.5337  156.0262 C.3     1  UNL1        0.0634
     22 C         141.8459  137.7420  155.2899 C.3     1  UNL1        0.0080
     23 C         143.0912  135.7001  157.0244 C.3     1  UNL1        0.0099
     24 C         142.9469  134.2071  157.0128 C.3     1  UNL1        0.0273
     25 C         142.0551  133.5477  156.0028 C.3     1  UNL1        0.0884
     26 C         141.3362  132.4686  155.2486 C.3     1  UNL1        0.0293
     27 O         142.5529  132.3393  156.7391 O.3     1  UNL1       -0.3867
     28 C         141.3077  134.3813  155.0046 C.3     1  UNL1        0.0273
     29 C         141.4520  135.8743  155.0163 C.3     1  UNL1        0.0099
     30 H         143.1587  132.6170  157.4439 H       1  UNL1        0.2102
@<TRIPOS>BOND
     1    17    18    1
     2    18    11    1
     3    11    12    1
     4    12    13    1
     5    13    14    1
     6    14     1    1
     7     1     2    2
     8     2     3    1
     9     3     4    2
    10     4     5    1
    11     5    19    1
    12    19    20    2
    13    19    21    1
    14    21    22    1
    15    21    23    1
    16    23    24    1
    17    24    25    1
    18    25    26    1
    19    25    27    1
    20    25    28    1
    21    28    29    1
    22     5     6    2
    23     6     7    1
    24     7     8    1
    25     8     9    2
    26     9    10    1
    27    14    15    1
    28    15    16    1
    29    16    11    1
    30     9     1    1
    31     7     3    1
    32    29    21    1
    33    27    30    1
