@<TRIPOS>MOLECULE
*****
 33 36 0 0 0
SMALL
GASTEIGER

@<TRIPOS>ATOM
      1 C         139.5774  140.8395  160.3942 C.ar    1  UNL1        0.0154
      2 C         138.8444  142.0919  160.0145 C.ar    1  UNL1        0.0985
      3 N         138.1768  142.9201  161.0720 N.ar    1  UNL1       -0.2423
      4 C         138.2421  142.4958  162.5093 C.ar    1  UNL1        0.0985
      5 C         138.9752  141.2434  162.8890 C.ar    1  UNL1        0.0152
      6 C         139.6428  140.4153  161.8314 C.ar    1  UNL1       -0.0188
      7 C         140.3758  139.1629  162.2111 C.3     1  UNL1        0.0311
      8 C         142.3863  139.3230  158.0361 C.ar    1  UNL1        0.1754
      9 C         141.7187  140.1511  159.0937 C.ar    1  UNL1        0.0403
     10 C         140.2451  140.0114  159.3365 C.ar    1  UNL1        0.0074
     11 C         139.4391  139.0436  158.5218 C.ar    1  UNL1        0.0403
     12 C         140.1068  138.2155  157.4643 C.ar    1  UNL1        0.1754
     13 C         141.5804  138.3552  157.2214 C.ar    1  UNL1        0.2061
     14 C         144.4684  140.8247  157.6367 C.3     1  UNL1        0.2526
     15 O         143.8599  139.4627  157.7933 O.3     1  UNL1       -0.4683
     16 O         139.3008  137.2476  156.6495 O.3     1  UNL1       -0.4683
     17 C         138.8628  137.6169  155.2633 C.3     1  UNL1        0.2526
     18 O         142.2480  137.5270  156.1638 O.3     1  UNL1       -0.4654
     19 C         142.8468  136.1982  156.5186 C.3     1  UNL1        0.2528
     20 C         139.0405  140.8192  164.3262 C.ar    1  UNL1        0.0014
     21 C         138.1256  139.7441  164.8332 C.ar    1  UNL1        0.0032
     22 C         138.1910  139.3198  166.2705 C.ar    1  UNL1        0.0369
     23 C         139.1713  139.9706  167.2008 C.ar    1  UNL1        0.1384
     24 C         140.0863  141.0457  166.6937 C.ar    1  UNL1        0.0369
     25 C         140.0209  141.4700  165.2565 C.ar    1  UNL1        0.0032
     26 O         139.2367  139.5463  168.6380 O.3     1  UNL1       -0.4791
     27 C         140.2106  140.2036  169.5704 C.3     1  UNL1        0.1687
     28 C         141.5658  139.5986  169.7879 C.3     1  UNL1        0.0606
     29 C         142.5397  140.2560  170.7203 C.3     1  UNL1        0.0723
     30 N         142.1584  141.5183  171.4353 N.3     1  UNL1       -0.2973
     31 C         140.8031  142.1232  171.2178 C.3     1  UNL1        0.0723
     32 C         139.8292  141.4659  170.2854 C.3     1  UNL1        0.0606
     33 H         142.8429  142.2259  171.1688 H       1  UNL1        0.1233
@<TRIPOS>BOND
     1    14    15    1
     2    15     8    1
     3     8     9   ar
     4     9    10   ar
     5    10     1    1
     6     1     2   ar
     7     2     3   ar
     8     3     4   ar
     9     4     5   ar
    10     5    20    1
    11    20    21   ar
    12    21    22   ar
    13    22    23   ar
    14    23    26    1
    15    26    27    1
    16    27    28    1
    17    28    29    1
    18    29    30    1
    19    30    31    1
    20    31    32    1
    21    23    24   ar
    22    24    25   ar
    23     5     6   ar
    24     6     7    1
    25    10    11   ar
    26    11    12   ar
    27    12    16    1
    28    16    17    1
    29    12    13   ar
    30    13    18    1
    31    18    19    1
    32    13     8   ar
    33     6     1   ar
    34    25    20   ar
    35    32    27    1
    36    30    33    1
@<TRIPOS>MOLECULE
*****
 33 36 0 0 0
SMALL
GASTEIGER

@<TRIPOS>ATOM
      1 C         139.5940  140.8128  160.3675 C.ar    1  UNL1        0.0154
      2 C         138.8581  142.0630  159.9863 C.ar    1  UNL1        0.0985
      3 N         138.1870  142.8900  161.0426 N.ar    1  UNL1       -0.2423
      4 C         138.2520  142.4668  162.4802 C.ar    1  UNL1        0.0985
      5 C         138.9879  141.2165  162.8614 C.ar    1  UNL1        0.0152
      6 C         139.6590  140.3896  161.8050 C.ar    1  UNL1       -0.0188
      7 C         140.3949  139.1394  162.1863 C.3     1  UNL1        0.0311
      8 C         140.1296  138.2051  157.4242 C.ar    1  UNL1        0.1754
      9 C         139.4586  139.0321  158.4805 C.ar    1  UNL1        0.0403
     10 C         140.2651  139.9859  159.3111 C.ar    1  UNL1        0.0074
     11 C         141.7425  140.1127  159.0853 C.ar    1  UNL1        0.0403
     12 C         142.4135  139.2858  158.0290 C.ar    1  UNL1        0.1754
     13 C         141.6070  138.3320  157.1984 C.ar    1  UNL1        0.2061
     14 C         138.7718  137.6909  155.2697 C.3     1  UNL1        0.2526
     15 O         139.3231  137.2513  156.5936 O.3     1  UNL1       -0.4683
     16 O         143.8910  139.4126  157.8032 O.3     1  UNL1       -0.4683
     17 C         144.4683  140.7134  157.3291 C.3     1  UNL1        0.2526
     18 O         142.2781  137.5050  156.1420 O.3     1  UNL1       -0.4654
     19 C         142.9037  136.1905  156.5035 C.3     1  UNL1        0.2528
     20 C         139.0528  140.7933  164.2990 C.ar    1  UNL1        0.0014
     21 C         138.1053  139.7528  164.8179 C.ar    1  UNL1        0.0032
     22 C         138.1702  139.3295  166.2556 C.ar    1  UNL1        0.0369
     23 C         139.1827  139.9467  167.1742 C.ar    1  UNL1        0.1384
     24 C         140.1303  140.9873  166.6551 C.ar    1  UNL1        0.0369
     25 C         140.0654  141.4106  165.2176 C.ar    1  UNL1        0.0032
     26 O         139.2476  139.5235  168.6117 O.3     1  UNL1       -0.4791
     27 C         140.1938  140.2079  169.5530 C.3     1  UNL1        0.1687
     28 C         141.5554  139.6291  169.8004 C.3     1  UNL1        0.0606
     29 C         142.5016  140.3137  170.7417 C.3     1  UNL1        0.0723
     30 N         142.0863  141.5769  171.4357 N.3     1  UNL1       -0.2973
     31 C         140.7248  142.1557  171.1883 C.3     1  UNL1        0.0723
     32 C         139.7786  141.4713  170.2470 C.3     1  UNL1        0.0606
     33 H         142.7631  142.2934  171.1728 H       1  UNL1        0.1233
@<TRIPOS>BOND
     1    14    15    1
     2    15     8    1
     3     8     9   ar
     4     9    10   ar
     5    10     1    1
     6     1     2   ar
     7     2     3   ar
     8     3     4   ar
     9     4     5   ar
    10     5    20    1
    11    20    21   ar
    12    21    22   ar
    13    22    23   ar
    14    23    26    1
    15    26    27    1
    16    27    28    1
    17    28    29    1
    18    29    30    1
    19    30    31    1
    20    31    32    1
    21    23    24   ar
    22    24    25   ar
    23     5     6   ar
    24     6     7    1
    25    10    11   ar
    26    11    12   ar
    27    12    16    1
    28    16    17    1
    29    12    13   ar
    30    13    18    1
    31    18    19    1
    32    13     8   ar
    33     6     1   ar
    34    25    20   ar
    35    32    27    1
    36    30    33    1
@<TRIPOS>MOLECULE
*****
 33 36 0 0 0
SMALL
GASTEIGER

@<TRIPOS>ATOM
      1 C         139.9380  139.7316  160.6121 C.ar    1  UNL1        0.0154
      2 C         140.8483  138.6180  160.1865 C.ar    1  UNL1        0.0985
      3 N         141.4326  137.6932  161.2128 N.ar    1  UNL1       -0.2423
      4 C         141.1066  137.8821  162.6648 C.ar    1  UNL1        0.0985
      5 C         140.1963  138.9957  163.0903 C.ar    1  UNL1        0.0152
      6 C         139.6120  139.9205  162.0640 C.ar    1  UNL1       -0.0188
      7 C         138.7017  141.0342  162.4895 C.3     1  UNL1        0.0311
      8 C         137.6129  141.1314  157.7164 C.ar    1  UNL1        0.1754
      9 C         138.1973  140.2067  158.7427 C.ar    1  UNL1        0.0403
     10 C         139.3536  140.6564  159.5857 C.ar    1  UNL1        0.0074
     11 C         139.9257  142.0308  159.4023 C.ar    1  UNL1        0.0403
     12 C         139.3414  142.9555  158.3759 C.ar    1  UNL1        0.1754
     13 C         138.1850  142.5058  157.5330 C.ar    1  UNL1        0.2061
     14 C         136.6893  140.2219  155.4648 C.3     1  UNL1        0.2526
     15 O         136.4566  140.6817  156.8735 O.3     1  UNL1       -0.4683
     16 O         139.9135  144.3300  158.1925 O.3     1  UNL1       -0.4683
     17 C         140.3015  145.1468  159.3892 C.3     1  UNL1        0.2526
     18 O         137.6007  143.4306  156.5066 O.3     1  UNL1       -0.4654
     19 C         138.2638  143.5823  155.1697 C.3     1  UNL1        0.2528
     20 C         139.8703  139.1846  164.5422 C.ar    1  UNL1        0.0014
     21 C         140.7967  139.9695  165.4229 C.ar    1  UNL1        0.0032
     22 C         140.4707  140.1584  166.8749 C.ar    1  UNL1        0.0369
     23 C         139.2183  139.5624  167.4461 C.ar    1  UNL1        0.1384
     24 C         138.2919  138.7775  166.5653 C.ar    1  UNL1        0.0369
     25 C         138.6179  138.5886  165.1134 C.ar    1  UNL1        0.0032
     26 O         138.8923  139.7513  168.8979 O.3     1  UNL1       -0.4791
     27 C         139.8397  140.4997  169.7881 C.3     1  UNL1        0.1687
     28 C         139.5682  141.9334  170.1355 C.3     1  UNL1        0.0606
     29 C         140.5156  142.6818  171.0257 C.3     1  UNL1        0.0723
     30 N         141.7345  141.9964  171.5684 N.3     1  UNL1       -0.2973
     31 C         142.0060  140.5627  171.2210 C.3     1  UNL1        0.0723
     32 C         141.0586  139.8143  170.3309 C.3     1  UNL1        0.0606
     33 H         141.6720  142.0462  172.5853 H       1  UNL1        0.1233
@<TRIPOS>BOND
     1    14    15    1
     2    15     8    1
     3     8     9   ar
     4     9    10   ar
     5    10     1    1
     6     1     2   ar
     7     2     3   ar
     8     3     4   ar
     9     4     5   ar
    10     5    20    1
    11    20    21   ar
    12    21    22   ar
    13    22    23   ar
    14    23    26    1
    15    26    27    1
    16    27    28    1
    17    28    29    1
    18    29    30    1
    19    30    31    1
    20    31    32    1
    21    23    24   ar
    22    24    25   ar
    23     5     6   ar
    24     6     7    1
    25    10    11   ar
    26    11    12   ar
    27    12    16    1
    28    16    17    1
    29    12    13   ar
    30    13    18    1
    31    18    19    1
    32    13     8   ar
    33     6     1   ar
    34    25    20   ar
    35    32    27    1
    36    30    33    1
@<TRIPOS>MOLECULE
*****
 33 36 0 0 0
SMALL
GASTEIGER

@<TRIPOS>ATOM
      1 C         139.9443  141.6096  164.9988 C.ar    1  UNL1        0.0154
      2 C         138.5655  141.0219  164.9388 C.ar    1  UNL1        0.0985
      3 N         137.7075  141.2442  163.7287 N.ar    1  UNL1       -0.2423
      4 C         138.2282  142.0542  162.5785 C.ar    1  UNL1        0.0985
      5 C         139.6070  142.6419  162.6385 C.ar    1  UNL1        0.0152
      6 C         140.4650  142.4195  163.8487 C.ar    1  UNL1       -0.0188
      7 C         141.8438  143.0072  163.9087 C.3     1  UNL1        0.0311
      8 C         141.6652  142.1725  168.5303 C.ar    1  UNL1        0.1754
      9 C         140.8073  142.3948  167.3201 C.ar    1  UNL1        0.0403
     10 C         140.8023  141.3873  166.2089 C.ar    1  UNL1        0.0074
     11 C         141.6553  140.1574  166.3078 C.ar    1  UNL1        0.0403
     12 C         142.5133  139.9351  167.5180 C.ar    1  UNL1        0.1754
     13 C         142.5182  140.9427  168.6292 C.ar    1  UNL1        0.2061
     14 C         140.4534  144.0184  169.8992 C.3     1  UNL1        0.2526
     15 O         141.6702  143.1801  169.6415 O.3     1  UNL1       -0.4683
     16 O         143.3664  138.7053  167.6169 O.3     1  UNL1       -0.4683
     17 C         143.9293  138.0810  166.3746 C.3     1  UNL1        0.2526
     18 O         143.3763  140.7204  169.8393 O.3     1  UNL1       -0.4654
     19 C         142.9552  139.7317  170.8859 C.3     1  UNL1        0.2528
     20 C         140.1277  143.4518  161.4884 C.ar    1  UNL1        0.0014
     21 C         140.8864  142.7814  160.3817 C.ar    1  UNL1        0.0032
     22 C         141.4072  143.5914  159.2315 C.ar    1  UNL1        0.0369
     23 C         141.1693  145.0718  159.1882 C.ar    1  UNL1        0.1384
     24 C         140.4106  145.7422  160.2951 C.ar    1  UNL1        0.0369
     25 C         139.8899  144.9322  161.4451 C.ar    1  UNL1        0.0032
     26 O         141.6901  145.8817  158.0381 O.3     1  UNL1       -0.4791
     27 C         140.8913  145.9876  156.7729 C.3     1  UNL1        0.1687
     28 C         139.5981  146.7475  156.7638 C.3     1  UNL1        0.0606
     29 C         138.7994  146.8534  155.4985 C.3     1  UNL1        0.0723
     30 N         139.2939  146.1994  154.2424 N.3     1  UNL1       -0.2973
     31 C         140.5871  145.4395  154.2516 C.3     1  UNL1        0.0723
     32 C         141.3858  145.3336  155.5168 C.3     1  UNL1        0.0606
     33 H         139.3908  146.9372  153.5448 H       1  UNL1        0.1233
@<TRIPOS>BOND
     1    14    15    1
     2    15     8    1
     3     8     9   ar
     4     9    10   ar
     5    10     1    1
     6     1     2   ar
     7     2     3   ar
     8     3     4   ar
     9     4     5   ar
    10     5    20    1
    11    20    21   ar
    12    21    22   ar
    13    22    23   ar
    14    23    26    1
    15    26    27    1
    16    27    28    1
    17    28    29    1
    18    29    30    1
    19    30    31    1
    20    31    32    1
    21    23    24   ar
    22    24    25   ar
    23     5     6   ar
    24     6     7    1
    25    10    11   ar
    26    11    12   ar
    27    12    16    1
    28    16    17    1
    29    12    13   ar
    30    13    18    1
    31    18    19    1
    32    13     8   ar
    33     6     1   ar
    34    25    20   ar
    35    32    27    1
    36    30    33    1
@<TRIPOS>MOLECULE
*****
 33 36 0 0 0
SMALL
GASTEIGER

@<TRIPOS>ATOM
      1 C         139.9050  139.7358  160.6233 C.ar    1  UNL1        0.0154
      2 C         140.8127  138.6188  160.2009 C.ar    1  UNL1        0.0985
      3 N         141.3960  137.6966  161.2300 N.ar    1  UNL1       -0.2423
      4 C         141.0717  137.8914  162.6816 C.ar    1  UNL1        0.0985
      5 C         140.1640  139.0084  163.1040 C.ar    1  UNL1        0.0152
      6 C         139.5807  139.9306  162.0747 C.ar    1  UNL1       -0.0188
      7 C         138.6730  141.0476  162.4971 C.3     1  UNL1        0.0311
      8 C         139.3040  142.9579  158.3856 C.ar    1  UNL1        0.1754
      9 C         139.8873  142.0357  159.4148 C.ar    1  UNL1        0.0403
     10 C         139.3216  140.6581  159.5940 C.ar    1  UNL1        0.0074
     11 C         138.1726  140.2027  158.7442 C.ar    1  UNL1        0.0403
     12 C         137.5893  141.1249  157.7150 C.ar    1  UNL1        0.1754
     13 C         138.1550  142.5025  157.5357 C.ar    1  UNL1        0.2061
     14 C         141.2902  144.5104  157.7572 C.3     1  UNL1        0.2526
     15 O         139.8697  144.3355  158.2063 O.3     1  UNL1       -0.4683
     16 O         136.4402  140.6695  156.8651 O.3     1  UNL1       -0.4683
     17 C         136.6730  140.2801  155.4354 C.3     1  UNL1        0.2526
     18 O         137.5716  143.4248  156.5065 O.3     1  UNL1       -0.4654
     19 C         138.3262  143.7107  155.2420 C.3     1  UNL1        0.2528
     20 C         139.8397  139.2032  164.5554 C.ar    1  UNL1        0.0014
     21 C         140.7582  140.0063  165.4279 C.ar    1  UNL1        0.0032
     22 C         140.4339  140.2012  166.8794 C.ar    1  UNL1        0.0369
     23 C         139.1911  139.5928  167.4585 C.ar    1  UNL1        0.1384
     24 C         138.2726  138.7896  166.5859 C.ar    1  UNL1        0.0369
     25 C         138.5969  138.5948  165.1344 C.ar    1  UNL1        0.0032
     26 O         138.8668  139.7876  168.9099 O.3     1  UNL1       -0.4791
     27 C         139.8243  140.5227  169.8002 C.3     1  UNL1        0.1687
     28 C         141.0533  139.8318  170.3125 C.3     1  UNL1        0.0606
     29 C         142.0108  140.5670  171.2029 C.3     1  UNL1        0.0723
     30 N         141.7394  141.9930  171.5809 N.3     1  UNL1       -0.2973
     31 C         140.5105  142.6838  171.0686 C.3     1  UNL1        0.0723
     32 C         139.5529  141.9487  170.1783 C.3     1  UNL1        0.0606
     33 H         142.5392  142.5396  171.2616 H       1  UNL1        0.1233
@<TRIPOS>BOND
     1    14    15    1
     2    15     8    1
     3     8     9   ar
     4     9    10   ar
     5    10     1    1
     6     1     2   ar
     7     2     3   ar
     8     3     4   ar
     9     4     5   ar
    10     5    20    1
    11    20    21   ar
    12    21    22   ar
    13    22    23   ar
    14    23    26    1
    15    26    27    1
    16    27    28    1
    17    28    29    1
    18    29    30    1
    19    30    31    1
    20    31    32    1
    21    23    24   ar
    22    24    25   ar
    23     5     6   ar
    24     6     7    1
    25    10    11   ar
    26    11    12   ar
    27    12    16    1
    28    16    17    1
    29    12    13   ar
    30    13    18    1
    31    18    19    1
    32    13     8   ar
    33     6     1   ar
    34    25    20   ar
    35    32    27    1
    36    30    33    1
@<TRIPOS>MOLECULE
*****
 33 36 0 0 0
SMALL
GASTEIGER

@<TRIPOS>ATOM
      1 C         142.9902  142.9110  159.7131 C.ar    1  UNL1        0.0154
      2 C         142.1226  144.0626  159.2995 C.ar    1  UNL1        0.0985
      3 N         141.5262  144.9638  160.3398 N.ar    1  UNL1       -0.2423
      4 C         141.7975  144.7134  161.7937 C.ar    1  UNL1        0.0985
      5 C         142.6651  143.5618  162.2073 C.ar    1  UNL1        0.0152
      6 C         143.2615  142.6606  161.1669 C.ar    1  UNL1       -0.0188
      7 C         144.1291  141.5089  161.5805 C.3     1  UNL1        0.0311
      8 C         145.5062  141.4498  157.0141 C.ar    1  UNL1        0.1754
      9 C         144.9099  142.3509  158.0544 C.ar    1  UNL1        0.0403
     10 C         143.5865  142.0098  158.6727 C.ar    1  UNL1        0.0074
     11 C         142.8596  140.7674  158.2508 C.ar    1  UNL1        0.0403
     12 C         143.4559  139.8663  157.2105 C.ar    1  UNL1        0.1754
     13 C         144.7793  140.2075  156.5921 C.ar    1  UNL1        0.2061
     14 C         146.9060  142.8218  155.3087 C.3     1  UNL1        0.2526
     15 O         146.8296  141.7910  156.3957 O.3     1  UNL1       -0.4683
     16 O         142.7289  138.6239  156.7885 O.3     1  UNL1       -0.4683
     17 C         142.7348  137.4139  157.6748 C.3     1  UNL1        0.2526
     18 O         145.3756  139.3063  155.5518 O.3     1  UNL1       -0.4654
     19 C         145.0849  139.5424  154.0993 C.3     1  UNL1        0.2528
     20 C         142.9364  143.3113  163.6611 C.ar    1  UNL1        0.0014
     21 C         144.1818  143.8550  164.2961 C.ar    1  UNL1        0.0032
     22 C         144.4532  143.6046  165.7500 C.ar    1  UNL1        0.0369
     23 C         143.4790  142.8105  166.5688 C.ar    1  UNL1        0.1384
     24 C         142.2335  142.2668  165.9337 C.ar    1  UNL1        0.0369
     25 C         141.9622  142.5173  164.4799 C.ar    1  UNL1        0.0032
     26 O         143.7503  142.5601  168.0226 O.3     1  UNL1       -0.4791
     27 C         142.6781  141.9799  168.8965 C.3     1  UNL1        0.1687
     28 C         142.6376  140.5026  169.1534 C.3     1  UNL1        0.0606
     29 C         141.5653  139.9225  170.0274 C.3     1  UNL1        0.0723
     30 N         140.5336  140.8196  170.6443 N.3     1  UNL1       -0.2973
     31 C         140.5741  142.2968  170.3874 C.3     1  UNL1        0.0723
     32 C         141.6463  142.8770  169.5135 C.3     1  UNL1        0.0606
     33 H         140.6007  140.6944  171.6544 H       1  UNL1        0.1233
@<TRIPOS>BOND
     1    14    15    1
     2    15     8    1
     3     8     9   ar
     4     9    10   ar
     5    10     1    1
     6     1     2   ar
     7     2     3   ar
     8     3     4   ar
     9     4     5   ar
    10     5    20    1
    11    20    21   ar
    12    21    22   ar
    13    22    23   ar
    14    23    26    1
    15    26    27    1
    16    27    28    1
    17    28    29    1
    18    29    30    1
    19    30    31    1
    20    31    32    1
    21    23    24   ar
    22    24    25   ar
    23     5     6   ar
    24     6     7    1
    25    10    11   ar
    26    11    12   ar
    27    12    16    1
    28    16    17    1
    29    12    13   ar
    30    13    18    1
    31    18    19    1
    32    13     8   ar
    33     6     1   ar
    34    25    20   ar
    35    32    27    1
    36    30    33    1
@<TRIPOS>MOLECULE
*****
 33 36 0 0 0
SMALL
GASTEIGER

@<TRIPOS>ATOM
      1 C         139.2892  141.2227  162.7819 C.ar    1  UNL1        0.0154
      2 C         138.5892  142.4989  162.4195 C.ar    1  UNL1        0.0985
      3 N         138.4792  142.9117  160.9817 N.ar    1  UNL1       -0.2423
      4 C         139.0693  142.0484  159.9062 C.ar    1  UNL1        0.0985
      5 C         139.7693  140.7722  160.2686 C.ar    1  UNL1        0.0152
      6 C         139.8792  140.3594  161.7065 C.ar    1  UNL1       -0.0188
      7 C         140.5792  139.0832  162.0690 C.3     1  UNL1        0.0311
      8 C         138.4356  139.5545  166.2803 C.ar    1  UNL1        0.1754
      9 C         138.3256  139.9674  164.8425 C.ar    1  UNL1        0.0403
     10 C         139.3992  140.8099  164.2199 C.ar    1  UNL1        0.0074
     11 C         140.5827  141.2395  165.0351 C.ar    1  UNL1        0.0403
     12 C         140.6926  140.8267  166.4729 C.ar    1  UNL1        0.1754
     13 C         139.6190  139.9842  167.0955 C.ar    1  UNL1        0.2061
     14 C         137.4607  137.2160  166.8557 C.3     1  UNL1        0.2526
     15 O         137.3620  138.7120  166.9029 O.3     1  UNL1       -0.4683
     16 O         141.8762  141.2563  167.2883 O.3     1  UNL1       -0.4683
     17 C         141.7807  142.4670  168.1687 C.3     1  UNL1        0.2526
     18 O         139.7290  139.5713  168.5335 O.3     1  UNL1       -0.4654
     19 C         139.0549  140.3822  169.6002 C.3     1  UNL1        0.2528
     20 C         140.3593  139.9089  159.1932 C.ar    1  UNL1        0.0014
     21 C         141.7951  140.0827  158.7954 C.ar    1  UNL1        0.0032
     22 C         142.3851  139.2193  157.7200 C.ar    1  UNL1        0.0369
     23 C         141.5394  138.1822  157.0424 C.ar    1  UNL1        0.1384
     24 C         140.1035  138.0084  157.4403 C.ar    1  UNL1        0.0369
     25 C         139.5135  138.8718  158.5157 C.ar    1  UNL1        0.0032
     26 O         142.1294  137.3189  155.9670 O.3     1  UNL1       -0.4791
     27 C         142.2462  135.8379  156.1740 C.3     1  UNL1        0.1687
     28 C         141.4457  134.8963  155.3239 C.3     1  UNL1        0.0606
     29 C         141.5626  133.4152  155.5310 C.3     1  UNL1        0.0723
     30 N         142.4799  132.8758  156.5881 N.3     1  UNL1       -0.2973
     31 C         143.2804  133.8173  157.4382 C.3     1  UNL1        0.0723
     32 C         143.1636  135.2983  157.2312 C.3     1  UNL1        0.0606
     33 H         143.1471  132.2659  156.1156 H       1  UNL1        0.1233
@<TRIPOS>BOND
     1    14    15    1
     2    15     8    1
     3     8     9   ar
     4     9    10   ar
     5    10     1    1
     6     1     2   ar
     7     2     3   ar
     8     3     4   ar
     9     4     5   ar
    10     5    20    1
    11    20    21   ar
    12    21    22   ar
    13    22    23   ar
    14    23    26    1
    15    26    27    1
    16    27    28    1
    17    28    29    1
    18    29    30    1
    19    30    31    1
    20    31    32    1
    21    23    24   ar
    22    24    25   ar
    23     5     6   ar
    24     6     7    1
    25    10    11   ar
    26    11    12   ar
    27    12    16    1
    28    16    17    1
    29    12    13   ar
    30    13    18    1
    31    18    19    1
    32    13     8   ar
    33     6     1   ar
    34    25    20   ar
    35    32    27    1
    36    30    33    1
@<TRIPOS>MOLECULE
*****
 33 36 0 0 0
SMALL
GASTEIGER

@<TRIPOS>ATOM
      1 C         139.2383  141.1316  162.7203 C.ar    1  UNL1        0.0154
      2 C         138.4841  142.3698  162.3353 C.ar    1  UNL1        0.0985
      3 N         138.3599  142.7535  160.8906 N.ar    1  UNL1       -0.2423
      4 C         138.9900  141.8992  159.8307 C.ar    1  UNL1        0.0985
      5 C         139.7442  140.6611  160.2157 C.ar    1  UNL1        0.0152
      6 C         139.8684  140.2773  161.6605 C.ar    1  UNL1       -0.0188
      7 C         140.6226  139.0392  162.0455 C.3     1  UNL1        0.0311
      8 C         140.6803  140.8063  166.4033 C.ar    1  UNL1        0.1754
      9 C         140.5561  141.1901  164.9586 C.ar    1  UNL1        0.0403
     10 C         139.3625  140.7479  164.1651 C.ar    1  UNL1        0.0074
     11 C         138.2930  139.9220  164.8163 C.ar    1  UNL1        0.0403
     12 C         138.4172  139.5382  166.2610 C.ar    1  UNL1        0.1754
     13 C         139.6109  139.9804  167.0545 C.ar    1  UNL1        0.2061
     14 C         141.7459  142.3740  168.1801 C.3     1  UNL1        0.2526
     15 O         141.8740  141.2485  167.1968 O.3     1  UNL1       -0.4683
     16 O         137.3478  138.7123  166.9123 O.3     1  UNL1       -0.4683
     17 C         137.4335  137.2151  166.8817 C.3     1  UNL1        0.2526
     18 O         139.7350  139.5967  168.4993 O.3     1  UNL1       -0.4654
     19 C         138.9473  140.3338  169.5415 C.3     1  UNL1        0.2528
     20 C         140.3743  139.8068  159.1560 C.ar    1  UNL1        0.0014
     21 C         139.5577  138.7674  158.4469 C.ar    1  UNL1        0.0032
     22 C         140.1878  137.9130  157.3871 C.ar    1  UNL1        0.0369
     23 C         141.6344  138.0981  157.0364 C.ar    1  UNL1        0.1384
     24 C         142.4510  139.1375  157.7455 C.ar    1  UNL1        0.0369
     25 C         141.8209  139.9919  158.8053 C.ar    1  UNL1        0.0032
     26 O         142.2645  137.2438  155.9767 O.3     1  UNL1       -0.4791
     27 C         142.2961  135.7526  156.1361 C.3     1  UNL1        0.1687
     28 C         141.4448  134.8860  155.2561 C.3     1  UNL1        0.0606
     29 C         141.4765  133.3948  155.4156 C.3     1  UNL1        0.0723
     30 N         142.3594  132.7703  156.4549 N.3     1  UNL1       -0.2973
     31 C         143.2108  133.6369  157.3349 C.3     1  UNL1        0.0723
     32 C         143.1791  135.1280  157.1755 C.3     1  UNL1        0.0606
     33 H         142.9917  132.1387  155.9632 H       1  UNL1        0.1233
@<TRIPOS>BOND
     1    14    15    1
     2    15     8    1
     3     8     9   ar
     4     9    10   ar
     5    10     1    1
     6     1     2   ar
     7     2     3   ar
     8     3     4   ar
     9     4     5   ar
    10     5    20    1
    11    20    21   ar
    12    21    22   ar
    13    22    23   ar
    14    23    26    1
    15    26    27    1
    16    27    28    1
    17    28    29    1
    18    29    30    1
    19    30    31    1
    20    31    32    1
    21    23    24   ar
    22    24    25   ar
    23     5     6   ar
    24     6     7    1
    25    10    11   ar
    26    11    12   ar
    27    12    16    1
    28    16    17    1
    29    12    13   ar
    30    13    18    1
    31    18    19    1
    32    13     8   ar
    33     6     1   ar
    34    25    20   ar
    35    32    27    1
    36    30    33    1
@<TRIPOS>MOLECULE
*****
 33 36 0 0 0
SMALL
GASTEIGER

@<TRIPOS>ATOM
      1 C         139.9137  139.7267  159.5277 C.ar    1  UNL1        0.0154
      2 C         138.5943  139.8660  158.8279 C.ar    1  UNL1        0.0985
      3 N         137.3229  139.8945  159.6232 N.ar    1  UNL1       -0.2423
      4 C         137.3707  139.7836  161.1184 C.ar    1  UNL1        0.0985
      5 C         138.6901  139.6442  161.8182 C.ar    1  UNL1        0.0152
      6 C         139.9617  139.6158  161.0228 C.ar    1  UNL1       -0.0188
      7 C         141.2811  139.4764  161.7227 C.3     1  UNL1        0.0311
      8 C         143.2036  140.9431  157.6711 C.ar    1  UNL1        0.1754
      9 C         141.9321  140.9715  158.4664 C.ar    1  UNL1        0.0403
     10 C         141.1852  139.6982  158.7324 C.ar    1  UNL1        0.0074
     11 C         141.7098  138.3964  158.2031 C.ar    1  UNL1        0.0403
     12 C         142.9813  138.3680  157.4078 C.ar    1  UNL1        0.1754
     13 C         143.7281  139.6414  157.1418 C.ar    1  UNL1        0.2061
     14 C         145.1060  142.6048  158.2791 C.3     1  UNL1        0.2526
     15 O         143.9505  142.2165  157.4051 O.3     1  UNL1       -0.4683
     16 O         143.5059  137.0662  156.8784 O.3     1  UNL1       -0.4683
     17 C         142.8004  136.3773  155.7482 C.3     1  UNL1        0.2526
     18 O         144.9997  139.6129  156.3464 O.3     1  UNL1       -0.4654
     19 C         144.9508  139.4090  154.8611 C.3     1  UNL1        0.2528
     20 C         138.7381  139.5333  163.3133 C.ar    1  UNL1        0.0014
     21 C         138.7182  140.7725  164.1582 C.ar    1  UNL1        0.0032
     22 C         138.7661  140.6617  165.6534 C.ar    1  UNL1        0.0369
     23 C         138.8339  139.3116  166.3036 C.ar    1  UNL1        0.1384
     24 C         138.8538  138.0724  165.4585 C.ar    1  UNL1        0.0369
     25 C         138.8059  138.1833  163.9634 C.ar    1  UNL1        0.0032
     26 O         138.8819  139.2007  167.7987 O.3     1  UNL1       -0.4791
     27 C         139.8502  140.0365  168.5820 C.3     1  UNL1        0.1687
     28 C         139.3564  140.9084  169.6982 C.3     1  UNL1        0.0606
     29 C         140.3249  141.7443  170.4816 C.3     1  UNL1        0.0723
     30 N         141.7870  141.7081  170.1487 N.3     1  UNL1       -0.2973
     31 C         142.2808  140.8362  169.0325 C.3     1  UNL1        0.0723
     32 C         141.3124  140.0004  168.2492 C.3     1  UNL1        0.0606
     33 H         142.2740  141.4090  170.9935 H       1  UNL1        0.1233
@<TRIPOS>BOND
     1    14    15    1
     2    15     8    1
     3     8     9   ar
     4     9    10   ar
     5    10     1    1
     6     1     2   ar
     7     2     3   ar
     8     3     4   ar
     9     4     5   ar
    10     5    20    1
    11    20    21   ar
    12    21    22   ar
    13    22    23   ar
    14    23    26    1
    15    26    27    1
    16    27    28    1
    17    28    29    1
    18    29    30    1
    19    30    31    1
    20    31    32    1
    21    23    24   ar
    22    24    25   ar
    23     5     6   ar
    24     6     7    1
    25    10    11   ar
    26    11    12   ar
    27    12    16    1
    28    16    17    1
    29    12    13   ar
    30    13    18    1
    31    18    19    1
    32    13     8   ar
    33     6     1   ar
    34    25    20   ar
    35    32    27    1
    36    30    33    1
