@<TRIPOS>MOLECULE
*****
 31 35 0 0 0
SMALL
GASTEIGER

@<TRIPOS>ATOM
      1 C         143.3341  142.7625  162.8064 C.ar    1  UNL1        0.0677
      2 C         144.8157  142.8454  162.5876 C.ar    1  UNL1        0.0162
      3 C         145.7254  141.8370  163.2243 C.ar    1  UNL1        0.0029
      4 C         145.1535  140.7456  164.0797 C.ar    1  UNL1        0.0188
      5 C         143.6719  140.6627  164.2986 C.ar    1  UNL1        0.0801
      6 C         142.7622  141.6712  163.6619 C.ar    1  UNL1        0.1120
      7 N         141.3534  141.3381  164.0550 N.ar    1  UNL1       -0.2256
      8 C         141.3925  140.1237  164.9347 C.ar    1  UNL1        0.1439
      9 N         142.8254  139.7063  165.0852 N.ar    1  UNL1       -0.3094
     10 C         143.3243  138.5377  165.8823 C.3     1  UNL1        0.1319
     11 C         140.2069  139.4457  165.5550 C.ar    1  UNL1        0.0343
     12 C         139.6502  138.1964  164.9391 C.ar    1  UNL1        0.0053
     13 C         138.4646  137.5185  165.5594 C.ar    1  UNL1        0.0297
     14 C         137.8357  138.0898  166.7955 C.ar    1  UNL1        0.1401
     15 F         136.6501  137.4118  167.4158 F       1  UNL1       -0.2042
     16 C         138.3924  139.3391  167.4114 C.ar    1  UNL1        0.0297
     17 C         139.5780  140.0171  166.7911 C.ar    1  UNL1        0.0053
     18 N         142.4243  143.7710  162.1697 N.pl3   1  UNL1       -0.3101
     19 H         142.4999  144.7229  162.4096 H       1  UNL1        0.1523
     20 C         139.3493  142.4457  159.1634 C.ar    1  UNL1        0.1490
     21 C         140.7813  142.0278  159.0056 C.ar    1  UNL1        0.0387
     22 C         141.8063  142.4695  160.0077 C.ar    1  UNL1        0.0193
     23 C         141.3993  143.3292  161.1676 C.ar    1  UNL1        0.0679
     24 C         139.9674  143.7471  161.3254 C.ar    1  UNL1        0.1150
     25 N         138.9424  143.3053  160.3233 N.ar    1  UNL1       -0.2251
     26 C         136.0271  142.4121  155.0594 C.3     1  UNL1        0.0538
     27 C         136.7973  141.9884  156.2749 C.ar    1  UNL1        0.0786
     28 C         137.8032  142.8192  157.0152 C.ar    1  UNL1        0.0976
     29 N         138.3243  142.0039  158.1613 N.ar    1  UNL1       -0.2716
     30 C         137.6405  140.6692  158.1293 C.ar    1  UNL1        0.1836
     31 N         136.6968  140.6596  156.9635 N.ar    1  UNL1       -0.2280
@<TRIPOS>BOND
     1    26    27    1
     2    27    28   ar
     3    28    29   ar
     4    29    20    1
     5    20    21   ar
     6    21    22   ar
     7    22    23   ar
     8    23    18    1
     9    18     1    1
    10     1     2   ar
    11     2     3   ar
    12     3     4   ar
    13     4     5   ar
    14     5     6   ar
    15     6     7   ar
    16     7     8   ar
    17     8    11    1
    18    11    12   ar
    19    12    13   ar
    20    13    14   ar
    21    14    15    1
    22    14    16   ar
    23    16    17   ar
    24     8     9   ar
    25     9    10    1
    26    23    24   ar
    27    24    25   ar
    28    29    30   ar
    29    30    31   ar
    30    31    27   ar
    31    25    20   ar
    32     6     1   ar
    33    17    11   ar
    34     9     5   ar
    35    18    19    1
@<TRIPOS>MOLECULE
*****
 31 35 0 0 0
SMALL
GASTEIGER

@<TRIPOS>ATOM
      1 C         143.9840  142.4299  162.8561 C.ar    1  UNL1        0.0677
      2 C         144.4719  143.8157  162.5539 C.ar    1  UNL1        0.0162
      3 C         143.7389  145.0047  163.1005 C.ar    1  UNL1        0.0029
      4 C         142.5180  144.8079  163.9494 C.ar    1  UNL1        0.0188
      5 C         142.0300  143.4221  164.2516 C.ar    1  UNL1        0.0801
      6 C         142.7631  142.2331  163.7050 C.ar    1  UNL1        0.1120
      7 N         142.0512  140.9965  164.1681 N.ar    1  UNL1       -0.2256
      8 C         140.8783  141.4214  165.0009 C.ar    1  UNL1        0.1439
      9 N         140.8652  142.9205  165.0525 N.ar    1  UNL1       -0.3094
     10 C         139.8632  143.7690  165.7778 C.3     1  UNL1        0.1319
     11 C         139.8916  140.5077  165.6655 C.ar    1  UNL1        0.0343
     12 C         139.0134  139.6202  164.8343 C.ar    1  UNL1        0.0053
     13 C         138.0268  138.7065  165.4989 C.ar    1  UNL1        0.0297
     14 C         137.9184  138.6804  166.9948 C.ar    1  UNL1        0.1401
     15 F         136.9317  137.7666  167.6594 F       1  UNL1       -0.2042
     16 C         138.7966  139.5679  167.8260 C.ar    1  UNL1        0.0297
     17 C         139.7832  140.4815  167.1614 C.ar    1  UNL1        0.0053
     18 N         144.7170  141.2407  162.3095 N.pl3   1  UNL1       -0.3101
     19 H         145.6117  141.0138  162.6520 H       1  UNL1        0.1523
     20 C         142.8267  138.7108  159.1038 C.ar    1  UNL1        0.1490
     21 C         143.2641  138.0831  160.3941 C.ar    1  UNL1        0.0387
     22 C         143.8942  138.9264  161.4626 C.ar    1  UNL1        0.0193
     23 C         144.0869  140.3974  161.2409 C.ar    1  UNL1        0.0679
     24 C         143.6495  141.0251  159.9507 C.ar    1  UNL1        0.1150
     25 N         143.0193  140.1818  158.8822 N.ar    1  UNL1       -0.2251
     26 C         142.0526  134.9514  155.4777 C.3     1  UNL1        0.0538
     27 C         141.8408  136.1395  156.3685 C.ar    1  UNL1        0.0786
     28 C         142.8194  136.6756  157.3709 C.ar    1  UNL1        0.0976
     29 N         142.1966  137.8675  158.0353 N.ar    1  UNL1       -0.2716
     30 C         140.8329  138.0681  157.4434 C.ar    1  UNL1        0.1836
     31 N         140.6130  137.0001  156.4133 N.ar    1  UNL1       -0.2280
@<TRIPOS>BOND
     1    26    27    1
     2    27    28   ar
     3    28    29   ar
     4    29    20    1
     5    20    21   ar
     6    21    22   ar
     7    22    23   ar
     8    23    18    1
     9    18     1    1
    10     1     2   ar
    11     2     3   ar
    12     3     4   ar
    13     4     5   ar
    14     5     6   ar
    15     6     7   ar
    16     7     8   ar
    17     8    11    1
    18    11    12   ar
    19    12    13   ar
    20    13    14   ar
    21    14    15    1
    22    14    16   ar
    23    16    17   ar
    24     8     9   ar
    25     9    10    1
    26    23    24   ar
    27    24    25   ar
    28    29    30   ar
    29    30    31   ar
    30    31    27   ar
    31    25    20   ar
    32     6     1   ar
    33    17    11   ar
    34     9     5   ar
    35    18    19    1
@<TRIPOS>MOLECULE
*****
 31 35 0 0 0
SMALL
GASTEIGER

@<TRIPOS>ATOM
      1 C         143.3863  141.4961  161.6936 C.ar    1  UNL1        0.0677
      2 C         144.8045  141.9833  161.7297 C.ar    1  UNL1        0.0162
      3 C         145.6015  141.8784  162.9961 C.ar    1  UNL1        0.0029
      4 C         144.9802  141.2863  164.2263 C.ar    1  UNL1        0.0188
      5 C         143.5620  140.7992  164.1902 C.ar    1  UNL1        0.0801
      6 C         142.7651  140.9041  162.9238 C.ar    1  UNL1        0.1120
      7 N         141.3988  140.3439  163.1881 N.ar    1  UNL1       -0.2256
      8 C         141.3515  139.8928  164.6179 C.ar    1  UNL1        0.1439
      9 N         142.6884  140.1742  165.2372 N.ar    1  UNL1       -0.3094
     10 C         143.0826  139.8819  166.6547 C.3     1  UNL1        0.1319
     11 C         140.1740  139.2697  165.3074 C.ar    1  UNL1        0.0343
     12 C         139.6529  137.9404  164.8477 C.ar    1  UNL1        0.0053
     13 C         138.4754  137.3174  165.5372 C.ar    1  UNL1        0.0297
     14 C         137.8191  138.0237  166.6863 C.ar    1  UNL1        0.1401
     15 F         136.6416  137.4006  167.3758 F       1  UNL1       -0.2042
     16 C         138.3402  139.3530  167.1459 C.ar    1  UNL1        0.0297
     17 C         139.5177  139.9760  166.4564 C.ar    1  UNL1        0.0053
     18 N         142.5893  141.6010  160.4271 N.pl3   1  UNL1       -0.3101
     19 H         142.1704  142.4566  160.1785 H       1  UNL1        0.1523
     20 C         142.1126  138.0049  157.7643 C.ar    1  UNL1        0.1490
     21 C         141.0061  138.3993  158.6971 C.ar    1  UNL1        0.0387
     22 C         141.1650  139.5980  159.5847 C.ar    1  UNL1        0.0193
     23 C         142.4304  140.4023  159.5395 C.ar    1  UNL1        0.0679
     24 C         143.5368  140.0079  158.6067 C.ar    1  UNL1        0.1150
     25 N         143.3779  138.8091  157.7191 N.ar    1  UNL1       -0.2251
     26 C         142.9282  133.3355  155.4378 C.3     1  UNL1        0.0538
     27 C         142.3286  134.6599  155.8073 C.ar    1  UNL1        0.0786
     28 C         142.8624  135.6135  156.8347 C.ar    1  UNL1        0.0976
     29 N         141.9537  136.8062  156.8767 N.ar    1  UNL1       -0.2716
     30 C         140.8582  136.5896  155.8752 C.ar    1  UNL1        0.1836
     31 N         141.0899  135.2631  155.2143 N.ar    1  UNL1       -0.2280
@<TRIPOS>BOND
     1    26    27    1
     2    27    28   ar
     3    28    29   ar
     4    29    20    1
     5    20    21   ar
     6    21    22   ar
     7    22    23   ar
     8    23    18    1
     9    18     1    1
    10     1     2   ar
    11     2     3   ar
    12     3     4   ar
    13     4     5   ar
    14     5     6   ar
    15     6     7   ar
    16     7     8   ar
    17     8    11    1
    18    11    12   ar
    19    12    13   ar
    20    13    14   ar
    21    14    15    1
    22    14    16   ar
    23    16    17   ar
    24     8     9   ar
    25     9    10    1
    26    23    24   ar
    27    24    25   ar
    28    29    30   ar
    29    30    31   ar
    30    31    27   ar
    31    25    20   ar
    32     6     1   ar
    33    17    11   ar
    34     9     5   ar
    35    18    19    1
@<TRIPOS>MOLECULE
*****
 31 35 0 0 0
SMALL
GASTEIGER

@<TRIPOS>ATOM
      1 C         139.5551  139.1733  162.5295 C.ar    1  UNL1        0.0677
      2 C         140.3679  138.2759  161.6441 C.ar    1  UNL1        0.0162
      3 C         141.6575  137.6963  162.1450 C.ar    1  UNL1        0.0029
      4 C         142.1343  138.0142  163.5312 C.ar    1  UNL1        0.0188
      5 C         141.3215  138.9117  164.4166 C.ar    1  UNL1        0.0801
      6 C         140.0319  139.4912  163.9157 C.ar    1  UNL1        0.1120
      7 N         139.4488  140.3377  165.0082 N.ar    1  UNL1       -0.2256
      8 C         140.3781  140.2813  166.1843 C.ar    1  UNL1        0.1439
      9 N         141.5355  139.4000  165.8186 N.ar    1  UNL1       -0.3094
     10 C         142.7020  139.0656  166.7002 C.3     1  UNL1        0.1319
     11 C         140.1841  140.9830  167.4958 C.ar    1  UNL1        0.0343
     12 C         139.5058  140.2760  168.6316 C.ar    1  UNL1        0.0053
     13 C         139.3118  140.9777  169.9430 C.ar    1  UNL1        0.0297
     14 C         139.7961  142.3865  170.1187 C.ar    1  UNL1        0.1401
     15 F         139.6021  143.0882  171.4302 F       1  UNL1       -0.2042
     16 C         140.4744  143.0935  168.9829 C.ar    1  UNL1        0.0297
     17 C         140.6684  142.3918  167.6715 C.ar    1  UNL1        0.0053
     18 N         138.2654  139.7529  162.0286 N.pl3   1  UNL1       -0.3101
     19 H         137.4242  139.5669  162.5050 H       1  UNL1        0.1523
     20 C         138.2415  142.3421  158.3481 C.ar    1  UNL1        0.1490
     21 C         138.0011  140.8663  158.2285 C.ar    1  UNL1        0.0387
     22 C         138.0091  140.0032  159.4553 C.ar    1  UNL1        0.0193
     23 C         138.2574  140.6160  160.8018 C.ar    1  UNL1        0.0679
     24 C         138.4977  142.0917  160.9214 C.ar    1  UNL1        0.1150
     25 N         138.4898  142.9548  159.6945 N.ar    1  UNL1       -0.2251
     26 C         139.6822  145.8195  154.6450 C.3     1  UNL1        0.0538
     27 C         138.8957  144.8035  155.4192 C.ar    1  UNL1        0.0786
     28 C         139.3201  144.1497  156.7007 C.ar    1  UNL1        0.0976
     29 N         138.2335  143.2051  157.1213 N.ar    1  UNL1       -0.2716
     30 C         137.1375  143.2751  156.0997 C.ar    1  UNL1        0.1836
     31 N         137.5467  144.2630  155.0477 N.ar    1  UNL1       -0.2280
@<TRIPOS>BOND
     1    26    27    1
     2    27    28   ar
     3    28    29   ar
     4    29    20    1
     5    20    21   ar
     6    21    22   ar
     7    22    23   ar
     8    23    18    1
     9    18     1    1
    10     1     2   ar
    11     2     3   ar
    12     3     4   ar
    13     4     5   ar
    14     5     6   ar
    15     6     7   ar
    16     7     8   ar
    17     8    11    1
    18    11    12   ar
    19    12    13   ar
    20    13    14   ar
    21    14    15    1
    22    14    16   ar
    23    16    17   ar
    24     8     9   ar
    25     9    10    1
    26    23    24   ar
    27    24    25   ar
    28    29    30   ar
    29    30    31   ar
    30    31    27   ar
    31    25    20   ar
    32     6     1   ar
    33    17    11   ar
    34     9     5   ar
    35    18    19    1
@<TRIPOS>MOLECULE
*****
 31 35 0 0 0
SMALL
GASTEIGER

@<TRIPOS>ATOM
      1 C         142.0941  143.2154  161.7496 C.ar    1  UNL1        0.0677
      2 C         141.7828  144.2898  160.7504 C.ar    1  UNL1        0.0162
      3 C         140.7415  145.3239  161.0609 C.ar    1  UNL1        0.0029
      4 C         140.0116  145.2835  162.3707 C.ar    1  UNL1        0.0188
      5 C         140.3229  144.2090  163.3700 C.ar    1  UNL1        0.0801
      6 C         141.3642  143.1750  163.0594 C.ar    1  UNL1        0.1120
      7 N         141.4562  142.2432  164.2314 N.ar    1  UNL1       -0.2256
      8 C         140.4717  142.7014  165.2662 C.ar    1  UNL1        0.1439
      9 N         139.7713  143.9164  164.7338 N.ar    1  UNL1       -0.3094
     10 C         138.7063  144.7009  165.4411 C.3     1  UNL1        0.1319
     11 C         140.2300  142.0578  166.5994 C.ar    1  UNL1        0.0343
     12 C         140.5654  142.7968  167.8609 C.ar    1  UNL1        0.0053
     13 C         140.3237  142.1531  169.1940 C.ar    1  UNL1        0.0297
     14 C         139.7466  140.7704  169.2656 C.ar    1  UNL1        0.1401
     15 F         139.5049  140.1267  170.5988 F       1  UNL1       -0.2042
     16 C         139.4112  140.0314  168.0042 C.ar    1  UNL1        0.0297
     17 C         139.6529  140.6751  166.6710 C.ar    1  UNL1        0.0053
     18 N         143.1355  142.1813  161.4391 N.pl3   1  UNL1       -0.3101
     19 H         144.0199  142.2287  161.8690 H       1  UNL1        0.1523
     20 C         142.2167  138.8621  158.5428 C.ar    1  UNL1        0.1490
     21 C         141.1512  139.3626  159.4725 C.ar    1  UNL1        0.0387
     22 C         141.4575  140.4690  160.4379 C.ar    1  UNL1        0.0193
     23 C         142.8292  141.0749  160.4737 C.ar    1  UNL1        0.0679
     24 C         143.8946  140.5744  159.5440 C.ar    1  UNL1        0.1150
     25 N         143.5884  139.4680  158.5785 N.ar    1  UNL1       -0.2251
     26 C         142.6075  134.4391  155.6853 C.3     1  UNL1        0.0538
     27 C         142.0901  135.7227  156.2638 C.ar    1  UNL1        0.0786
     28 C         142.7835  136.5707  157.2885 C.ar    1  UNL1        0.0976
     29 N         141.9105  137.7557  157.5773 N.ar    1  UNL1       -0.2716
     30 C         140.6774  137.6401  156.7311 C.ar    1  UNL1        0.1836
     31 N         140.7884  136.3836  155.9193 N.ar    1  UNL1       -0.2280
@<TRIPOS>BOND
     1    26    27    1
     2    27    28   ar
     3    28    29   ar
     4    29    20    1
     5    20    21   ar
     6    21    22   ar
     7    22    23   ar
     8    23    18    1
     9    18     1    1
    10     1     2   ar
    11     2     3   ar
    12     3     4   ar
    13     4     5   ar
    14     5     6   ar
    15     6     7   ar
    16     7     8   ar
    17     8    11    1
    18    11    12   ar
    19    12    13   ar
    20    13    14   ar
    21    14    15    1
    22    14    16   ar
    23    16    17   ar
    24     8     9   ar
    25     9    10    1
    26    23    24   ar
    27    24    25   ar
    28    29    30   ar
    29    30    31   ar
    30    31    27   ar
    31    25    20   ar
    32     6     1   ar
    33    17    11   ar
    34     9     5   ar
    35    18    19    1
@<TRIPOS>MOLECULE
*****
 31 35 0 0 0
SMALL
GASTEIGER

@<TRIPOS>ATOM
      1 C         138.8644  139.5911  168.2787 C.ar    1  UNL1        0.0677
      2 C         138.3280  139.8829  169.6487 C.ar    1  UNL1        0.0162
      3 C         139.0796  140.7981  170.5692 C.ar    1  UNL1        0.0029
      4 C         140.3677  141.4215  170.1196 C.ar    1  UNL1        0.0188
      5 C         140.9042  141.1298  168.7496 C.ar    1  UNL1        0.0801
      6 C         140.1525  140.2146  167.8291 C.ar    1  UNL1        0.1120
      7 N         140.9220  140.1138  166.5454 N.ar    1  UNL1       -0.2256
      8 C         142.1493  140.9668  166.6726 C.ar    1  UNL1        0.1439
      9 N         142.1383  141.5947  168.0349 N.ar    1  UNL1       -0.3094
     10 C         143.1786  142.5243  168.5857 C.3     1  UNL1        0.1319
     11 C         143.2028  141.1584  165.6221 C.ar    1  UNL1        0.0343
     12 C         143.5349  142.5379  165.1357 C.ar    1  UNL1        0.0053
     13 C         144.5883  142.7293  164.0852 C.ar    1  UNL1        0.0297
     14 C         145.3096  141.5413  163.5210 C.ar    1  UNL1        0.1401
     15 F         146.3630  141.7328  162.4704 F       1  UNL1       -0.2042
     16 C         144.9774  140.1618  164.0074 C.ar    1  UNL1        0.0297
     17 C         143.9240  139.9703  165.0579 C.ar    1  UNL1        0.0053
     18 N         138.1127  138.6759  167.3581 N.pl3   1  UNL1       -0.3101
     19 H         137.4978  138.0019  167.7281 H       1  UNL1        0.1523
     20 C         138.6683  139.0109  162.9051 C.ar    1  UNL1        0.1490
     21 C         139.0365  137.7409  163.6134 C.ar    1  UNL1        0.0387
     22 C         138.8513  137.6292  165.0977 C.ar    1  UNL1        0.0193
     23 C         138.2979  138.7876  165.8738 C.ar    1  UNL1        0.0679
     24 C         137.9298  140.0575  165.1655 C.ar    1  UNL1        0.1150
     25 N         138.1150  140.1692  163.6811 N.ar    1  UNL1       -0.2251
     26 C         140.6546  138.4987  158.0396 C.3     1  UNL1        0.0538
     27 C         139.7665  138.8872  159.1843 C.ar    1  UNL1        0.0786
     28 C         139.9785  138.5292  160.6255 C.ar    1  UNL1        0.0976
     29 N         138.8536  139.1226  161.4208 N.ar    1  UNL1       -0.2716
     30 C         137.9464  139.8472  160.4711 C.ar    1  UNL1        0.1836
     31 N         138.5106  139.7017  159.0889 N.ar    1  UNL1       -0.2280
@<TRIPOS>BOND
     1    26    27    1
     2    27    28   ar
     3    28    29   ar
     4    29    20    1
     5    20    21   ar
     6    21    22   ar
     7    22    23   ar
     8    23    18    1
     9    18     1    1
    10     1     2   ar
    11     2     3   ar
    12     3     4   ar
    13     4     5   ar
    14     5     6   ar
    15     6     7   ar
    16     7     8   ar
    17     8    11    1
    18    11    12   ar
    19    12    13   ar
    20    13    14   ar
    21    14    15    1
    22    14    16   ar
    23    16    17   ar
    24     8     9   ar
    25     9    10    1
    26    23    24   ar
    27    24    25   ar
    28    29    30   ar
    29    30    31   ar
    30    31    27   ar
    31    25    20   ar
    32     6     1   ar
    33    17    11   ar
    34     9     5   ar
    35    18    19    1
@<TRIPOS>MOLECULE
*****
 31 35 0 0 0
SMALL
GASTEIGER

@<TRIPOS>ATOM
      1 C         139.1084  138.1122  164.2840 C.ar    1  UNL1        0.0677
      2 C         138.2532  137.3359  165.2410 C.ar    1  UNL1        0.0162
      3 C         138.0356  137.8450  166.6350 C.ar    1  UNL1        0.0029
      4 C         138.6732  139.1305  167.0721 C.ar    1  UNL1        0.0188
      5 C         139.5284  139.9068  166.1151 C.ar    1  UNL1        0.0801
      6 C         139.7460  139.3977  164.7211 C.ar    1  UNL1        0.1120
      7 N         140.6330  140.3725  164.0047 N.ar    1  UNL1       -0.2256
      8 C         140.9636  141.4841  164.9560 C.ar    1  UNL1        0.1439
      9 N         140.2809  141.1963  166.2603 N.ar    1  UNL1       -0.3094
     10 C         140.3403  142.0483  167.4934 C.3     1  UNL1        0.1319
     11 C         141.8255  142.6745  164.6558 C.ar    1  UNL1        0.0343
     12 C         143.2853  142.6493  164.9994 C.ar    1  UNL1        0.0053
     13 C         144.1471  143.8397  164.6992 C.ar    1  UNL1        0.0297
     14 C         143.5491  145.0553  164.0554 C.ar    1  UNL1        0.1401
     15 F         144.4110  146.2458  163.7552 F       1  UNL1       -0.2042
     16 C         142.0892  145.0806  163.7118 C.ar    1  UNL1        0.0297
     17 C         141.2274  143.8902  164.0120 C.ar    1  UNL1        0.0053
     18 N         139.3261  137.6031  162.8899 N.pl3   1  UNL1       -0.3101
     19 H         139.6962  136.7020  162.7471 H       1  UNL1        0.1523
     20 C         138.2870  140.1942  159.3605 C.ar    1  UNL1        0.1490
     21 C         137.3293  140.0712  160.5085 C.ar    1  UNL1        0.0387
     22 C         137.6756  139.2075  161.6849 C.ar    1  UNL1        0.0193
     23 C         138.9797  138.4668  161.7134 C.ar    1  UNL1        0.0679
     24 C         139.9374  138.5898  160.5655 C.ar    1  UNL1        0.1150
     25 N         139.5911  139.4535  159.3891 N.ar    1  UNL1       -0.2251
     26 C         136.0868  141.9464  154.8918 C.3     1  UNL1        0.0538
     27 C         136.9294  141.8633  156.1300 C.ar    1  UNL1        0.0786
     28 C         136.9631  140.7182  157.0983 C.ar    1  UNL1        0.0976
     29 N         137.9407  141.0579  158.1841 N.ar    1  UNL1       -0.2716
     30 C         138.5111  142.4130  157.8868 C.ar    1  UNL1        0.1836
     31 N         137.8861  142.9107  156.6173 N.ar    1  UNL1       -0.2280
@<TRIPOS>BOND
     1    26    27    1
     2    27    28   ar
     3    28    29   ar
     4    29    20    1
     5    20    21   ar
     6    21    22   ar
     7    22    23   ar
     8    23    18    1
     9    18     1    1
    10     1     2   ar
    11     2     3   ar
    12     3     4   ar
    13     4     5   ar
    14     5     6   ar
    15     6     7   ar
    16     7     8   ar
    17     8    11    1
    18    11    12   ar
    19    12    13   ar
    20    13    14   ar
    21    14    15    1
    22    14    16   ar
    23    16    17   ar
    24     8     9   ar
    25     9    10    1
    26    23    24   ar
    27    24    25   ar
    28    29    30   ar
    29    30    31   ar
    30    31    27   ar
    31    25    20   ar
    32     6     1   ar
    33    17    11   ar
    34     9     5   ar
    35    18    19    1
@<TRIPOS>MOLECULE
*****
 31 35 0 0 0
SMALL
GASTEIGER

@<TRIPOS>ATOM
      1 C         139.8626  142.4191  162.1246 C.ar    1  UNL1        0.0677
      2 C         138.9560  141.5721  161.2817 C.ar    1  UNL1        0.0162
      3 C         138.2183  140.4205  161.8978 C.ar    1  UNL1        0.0029
      4 C         138.3874  140.1158  163.3568 C.ar    1  UNL1        0.0188
      5 C         139.2940  140.9628  164.1997 C.ar    1  UNL1        0.0801
      6 C         140.0316  142.1144  163.5836 C.ar    1  UNL1        0.1120
      7 N         140.8503  142.7682  164.6572 N.ar    1  UNL1       -0.2256
      8 C         140.6186  142.0205  165.9368 C.ar    1  UNL1        0.1439
      9 N         139.6568  140.9048  165.6540 N.ar    1  UNL1       -0.3094
     10 C         139.1471  139.9062  166.6506 C.3     1  UNL1        0.1319
     11 C         141.2397  142.3337  167.2658 C.ar    1  UNL1        0.0343
     12 C         142.6823  142.0072  167.5151 C.ar    1  UNL1        0.0053
     13 C         143.3033  142.3203  168.8441 C.ar    1  UNL1        0.0297
     14 C         142.4816  142.9599  169.9238 C.ar    1  UNL1        0.1401
     15 F         143.1027  143.2731  171.2529 F       1  UNL1       -0.2042
     16 C         141.0390  143.2864  169.6745 C.ar    1  UNL1        0.0297
     17 C         140.4180  142.9733  168.3455 C.ar    1  UNL1        0.0053
     18 N         140.6003  143.5708  161.5086 N.pl3   1  UNL1       -0.3101
     19 H         140.3513  144.4949  161.7394 H       1  UNL1        0.1523
     20 C         143.9514  142.8018  158.6054 C.ar    1  UNL1        0.1490
     21 C         142.7097  143.5079  158.1475 C.ar    1  UNL1        0.0387
     22 C         141.5926  143.7643  159.1153 C.ar    1  UNL1        0.0193
     23 C         141.7173  143.3145  160.5408 C.ar    1  UNL1        0.0679
     24 C         142.9590  142.6084  160.9986 C.ar    1  UNL1        0.1150
     25 N         144.0761  142.3521  160.0309 N.ar    1  UNL1       -0.2251
     26 C         146.6187  141.3632  154.2814 C.3     1  UNL1        0.0538
     27 C         146.2945  141.8842  155.6501 C.ar    1  UNL1        0.0786
     28 C         144.9275  141.9631  156.2625 C.ar    1  UNL1        0.0976
     29 N         145.0685  142.5455  157.6376 N.ar    1  UNL1       -0.2716
     30 C         146.5226  142.8265  157.8751 C.ar    1  UNL1        0.1836
     31 N         147.2804  142.4179  156.6467 N.ar    1  UNL1       -0.2280
@<TRIPOS>BOND
     1    26    27    1
     2    27    28   ar
     3    28    29   ar
     4    29    20    1
     5    20    21   ar
     6    21    22   ar
     7    22    23   ar
     8    23    18    1
     9    18     1    1
    10     1     2   ar
    11     2     3   ar
    12     3     4   ar
    13     4     5   ar
    14     5     6   ar
    15     6     7   ar
    16     7     8   ar
    17     8    11    1
    18    11    12   ar
    19    12    13   ar
    20    13    14   ar
    21    14    15    1
    22    14    16   ar
    23    16    17   ar
    24     8     9   ar
    25     9    10    1
    26    23    24   ar
    27    24    25   ar
    28    29    30   ar
    29    30    31   ar
    30    31    27   ar
    31    25    20   ar
    32     6     1   ar
    33    17    11   ar
    34     9     5   ar
    35    18    19    1
@<TRIPOS>MOLECULE
*****
 31 35 0 0 0
SMALL
GASTEIGER

@<TRIPOS>ATOM
      1 C         141.0048  139.1454  163.0250 C.ar    1  UNL1        0.0677
      2 C         139.9885  138.2100  162.4400 C.ar    1  UNL1        0.0162
      3 C         138.8390  137.7328  163.2771 C.ar    1  UNL1        0.0029
      4 C         138.7057  138.1909  164.6992 C.ar    1  UNL1        0.0188
      5 C         139.7220  139.1263  165.2842 C.ar    1  UNL1        0.0801
      6 C         140.8715  139.6035  164.4471 C.ar    1  UNL1        0.1120
      7 N         141.7117  140.5162  165.2905 N.ar    1  UNL1       -0.2256
      8 C         141.0813  140.6030  166.6488 C.ar    1  UNL1        0.1439
      9 N         139.8517  139.7440  166.6449 N.ar    1  UNL1       -0.3094
     10 C         138.9159  139.5387  167.7991 C.3     1  UNL1        0.1319
     11 C         141.5912  141.4075  167.8077 C.ar    1  UNL1        0.0343
     12 C         140.7553  142.5152  168.3771 C.ar    1  UNL1        0.0053
     13 C         141.2652  143.3197  169.5359 C.ar    1  UNL1        0.0297
     14 C         142.6108  143.0165  170.1252 C.ar    1  UNL1        0.1401
     15 F         143.1206  143.8210  171.2841 F       1  UNL1       -0.2042
     16 C         143.4466  141.9088  169.5558 C.ar    1  UNL1        0.0297
     17 C         142.9368  141.1043  168.3970 C.ar    1  UNL1        0.0053
     18 N         142.1544  139.6226  162.1879 N.pl3   1  UNL1       -0.3101
     19 H         143.0330  139.1848  162.2628 H       1  UNL1        0.1523
     20 C         141.5872  143.0557  159.3344 C.ar    1  UNL1        0.1490
     21 C         140.6104  142.8404  160.4524 C.ar    1  UNL1        0.0387
     22 C         140.7995  141.6961  161.4036 C.ar    1  UNL1        0.0193
     23 C         141.9653  140.7670  161.2367 C.ar    1  UNL1        0.0679
     24 C         142.9420  140.9823  160.1188 C.ar    1  UNL1        0.1150
     25 N         142.7529  142.1267  159.1677 N.ar    1  UNL1       -0.2251
     26 C         139.3869  146.9947  156.5914 C.3     1  UNL1        0.0538
     27 C         140.3867  146.0106  157.1224 C.ar    1  UNL1        0.0786
     28 C         140.1214  144.9529  158.1524 C.ar    1  UNL1        0.0976
     29 N         141.3981  144.2001  158.3833 N.ar    1  UNL1       -0.2716
     30 C         142.4525  144.7926  157.4961 C.ar    1  UNL1        0.1836
     31 N         141.8274  145.9116  156.7168 N.ar    1  UNL1       -0.2280
@<TRIPOS>BOND
     1    26    27    1
     2    27    28   ar
     3    28    29   ar
     4    29    20    1
     5    20    21   ar
     6    21    22   ar
     7    22    23   ar
     8    23    18    1
     9    18     1    1
    10     1     2   ar
    11     2     3   ar
    12     3     4   ar
    13     4     5   ar
    14     5     6   ar
    15     6     7   ar
    16     7     8   ar
    17     8    11    1
    18    11    12   ar
    19    12    13   ar
    20    13    14   ar
    21    14    15    1
    22    14    16   ar
    23    16    17   ar
    24     8     9   ar
    25     9    10    1
    26    23    24   ar
    27    24    25   ar
    28    29    30   ar
    29    30    31   ar
    30    31    27   ar
    31    25    20   ar
    32     6     1   ar
    33    17    11   ar
    34     9     5   ar
    35    18    19    1
