@<TRIPOS>MOLECULE
*****
 25 28 0 0 0
SMALL
GASTEIGER

@<TRIPOS>ATOM
      1 C         137.3790  137.9387  167.0564 C.3     1  UNL1        0.1538
      2 N         138.4123  139.0260  167.0443 N.ar    1  UNL1       -0.2474
      3 C         138.9269  139.7397  165.8294 C.ar    1  UNL1        0.0967
      4 C         139.9451  140.7453  166.2793 C.ar    1  UNL1        0.0411
      5 C         140.0597  140.6530  167.7720 C.ar    1  UNL1        0.1024
      6 N         139.1124  139.5904  168.2448 N.ar    1  UNL1       -0.1692
      7 C         140.7137  141.6791  165.3921 C.ar    1  UNL1        0.0398
      8 C         140.1205  142.9999  165.0002 C.ar    1  UNL1        0.0238
      9 C         140.8889  143.9337  164.1131 C.ar    1  UNL1        0.0987
     10 N         142.2509  143.5469  163.6176 N.ar    1  UNL1       -0.2437
     11 C         142.8443  142.2261  164.0094 C.ar    1  UNL1        0.1087
     12 C         142.0757  141.2922  164.8967 C.ar    1  UNL1        0.1534
     13 O         142.4791  139.9392  165.4031 O.3     1  UNL1       -0.4727
     14 C         143.7507  139.1858  165.1473 C.3     1  UNL1        0.2225
     15 C         144.9330  139.5993  164.3220 C.3     1  UNL1        0.1168
     16 N         145.1356  140.8685  163.5486 N.3     1  UNL1       -0.2893
     17 C         144.2060  142.0375  163.4095 C.3     1  UNL1        0.1184
     18 H         145.3034  140.5601  162.5909 H       1  UNL1        0.1237
     19 C         140.9630  141.4783  168.6397 C.ar    1  UNL1        0.0195
     20 C         142.3663  141.0221  168.9093 C.ar    1  UNL1        0.0039
     21 C         143.2695  141.8475  169.7771 C.ar    1  UNL1        0.0297
     22 C         142.7696  143.1290  170.3751 C.ar    1  UNL1        0.1401
     23 F         143.6728  143.9544  171.2427 F       1  UNL1       -0.2042
     24 C         141.3662  143.5852  170.1053 C.ar    1  UNL1        0.0297
     25 C         140.4631  142.7598  169.2377 C.ar    1  UNL1        0.0039
@<TRIPOS>BOND
     1     1     2    1
     2     2     3   ar
     3     3     4   ar
     4     4     7    1
     5     7     8   ar
     6     8     9   ar
     7     9    10   ar
     8    10    11   ar
     9    11    12   ar
    10    12    13    1
    11    13    14    1
    12    14    15    1
    13    15    16    1
    14    16    17    1
    15     4     5   ar
    16     5    19    1
    17    19    20   ar
    18    20    21   ar
    19    21    22   ar
    20    22    23    1
    21    22    24   ar
    22    24    25   ar
    23     5     6   ar
    24     6     2   ar
    25    12     7   ar
    26    25    19   ar
    27    17    11    1
    28    16    18    1
@<TRIPOS>MOLECULE
*****
 25 28 0 0 0
SMALL
GASTEIGER

@<TRIPOS>ATOM
      1 C         139.8274  140.2460  170.5130 C.3     1  UNL1        0.1538
      2 N         140.1756  140.1795  169.0555 N.ar    1  UNL1       -0.2474
      3 C         139.2526  139.7702  167.9462 C.ar    1  UNL1        0.0967
      4 C         140.0146  139.8485  166.6565 C.ar    1  UNL1        0.0411
      5 C         141.4085  140.3061  166.9688 C.ar    1  UNL1        0.1024
      6 N         141.5081  140.5107  168.4514 N.ar    1  UNL1       -0.1692
      7 C         139.4770  139.5258  165.2939 C.ar    1  UNL1        0.0398
      8 C         139.5365  138.1185  164.7781 C.ar    1  UNL1        0.0238
      9 C         138.9990  137.7958  163.4155 C.ar    1  UNL1        0.0987
     10 N         138.4019  138.8803  162.5685 N.ar    1  UNL1       -0.2437
     11 C         138.3423  140.2876  163.0843 C.ar    1  UNL1        0.1087
     12 C         138.8799  140.6104  164.4470 C.ar    1  UNL1        0.1534
     13 O         138.9187  141.9363  165.1471 O.3     1  UNL1       -0.4727
     14 C         138.4295  143.2671  164.6575 C.3     1  UNL1        0.2225
     15 C         137.7806  143.6006  163.3468 C.3     1  UNL1        0.1168
     16 N         137.4608  142.6856  162.2021 N.3     1  UNL1       -0.2893
     17 C         137.7108  141.2111  162.0853 C.3     1  UNL1        0.1184
     18 H         137.9514  143.0918  161.4054 H       1  UNL1        0.1237
     19 C         142.5096  140.5214  165.9732 C.ar    1  UNL1        0.0195
     20 C         143.2698  139.3479  165.4302 C.ar    1  UNL1        0.0039
     21 C         144.3710  139.5632  164.4346 C.ar    1  UNL1        0.0297
     22 C         144.7119  140.9521  163.9820 C.ar    1  UNL1        0.1401
     23 F         145.8130  141.1675  162.9865 F       1  UNL1       -0.2042
     24 C         143.9516  142.1257  164.5251 C.ar    1  UNL1        0.0297
     25 C         142.8505  141.9103  165.5207 C.ar    1  UNL1        0.0039
@<TRIPOS>BOND
     1     1     2    1
     2     2     3   ar
     3     3     4   ar
     4     4     7    1
     5     7     8   ar
     6     8     9   ar
     7     9    10   ar
     8    10    11   ar
     9    11    12   ar
    10    12    13    1
    11    13    14    1
    12    14    15    1
    13    15    16    1
    14    16    17    1
    15     4     5   ar
    16     5    19    1
    17    19    20   ar
    18    20    21   ar
    19    21    22   ar
    20    22    23    1
    21    22    24   ar
    22    24    25   ar
    23     5     6   ar
    24     6     2   ar
    25    12     7   ar
    26    25    19   ar
    27    17    11    1
    28    16    18    1
@<TRIPOS>MOLECULE
*****
 25 28 0 0 0
SMALL
GASTEIGER

@<TRIPOS>ATOM
      1 C         137.0440  137.8525  167.3540 C.3     1  UNL1        0.1538
      2 N         138.2131  138.7885  167.2701 N.ar    1  UNL1       -0.2474
      3 C         138.9585  139.1586  166.0221 C.ar    1  UNL1        0.0967
      4 C         140.0482  140.1176  166.4003 C.ar    1  UNL1        0.0411
      5 C         139.9763  140.3402  167.8818 C.ar    1  UNL1        0.1024
      6 N         138.8421  139.5188  168.4195 N.ar    1  UNL1       -0.1692
      7 C         141.0364  140.7440  165.4615 C.ar    1  UNL1        0.0398
      8 C         142.3341  140.0518  165.1673 C.ar    1  UNL1        0.0238
      9 C         143.3222  140.6781  164.2286 C.ar    1  UNL1        0.0987
     10 N         143.0126  141.9967  163.5840 N.ar    1  UNL1       -0.2437
     11 C         141.7148  142.6890  163.8783 C.ar    1  UNL1        0.1087
     12 C         140.7267  142.0626  164.8170 C.ar    1  UNL1        0.1534
     13 O         139.3850  142.5797  165.2442 O.3     1  UNL1       -0.4727
     14 C         138.7001  143.8509  164.8381 C.3     1  UNL1        0.2225
     15 C         139.1877  144.9191  163.9046 C.3     1  UNL1        0.1168
     16 N         140.4807  144.9797  163.1466 N.3     1  UNL1       -0.2893
     17 C         141.6053  143.9871  163.1349 C.3     1  UNL1        0.1184
     18 H         140.9133  145.8525  163.4487 H       1  UNL1        0.1237
     19 C         140.8798  141.2283  168.6849 C.ar    1  UNL1        0.0195
     20 C         140.3920  142.5668  169.1545 C.ar    1  UNL1        0.0039
     21 C         141.2956  143.4548  169.9576 C.ar    1  UNL1        0.0297
     22 C         142.6869  143.0044  170.2911 C.ar    1  UNL1        0.1401
     23 F         143.5905  143.8924  171.0942 F       1  UNL1       -0.2042
     24 C         143.1747  141.6659  169.8215 C.ar    1  UNL1        0.0297
     25 C         142.2711  140.7779  169.0184 C.ar    1  UNL1        0.0039
@<TRIPOS>BOND
     1     1     2    1
     2     2     3   ar
     3     3     4   ar
     4     4     7    1
     5     7     8   ar
     6     8     9   ar
     7     9    10   ar
     8    10    11   ar
     9    11    12   ar
    10    12    13    1
    11    13    14    1
    12    14    15    1
    13    15    16    1
    14    16    17    1
    15     4     5   ar
    16     5    19    1
    17    19    20   ar
    18    20    21   ar
    19    21    22   ar
    20    22    23    1
    21    22    24   ar
    22    24    25   ar
    23     5     6   ar
    24     6     2   ar
    25    12     7   ar
    26    25    19   ar
    27    17    11    1
    28    16    18    1
@<TRIPOS>MOLECULE
*****
 25 28 0 0 0
SMALL
GASTEIGER

@<TRIPOS>ATOM
      1 C         142.5597  140.3363  170.6021 C.3     1  UNL1        0.1538
      2 N         142.1008  140.3912  169.1751 N.ar    1  UNL1       -0.2474
      3 C         142.5625  139.4938  168.0653 C.ar    1  UNL1        0.0967
      4 C         141.8466  139.9011  166.8117 C.ar    1  UNL1        0.0411
      5 C         140.9425  141.0501  167.1466 C.ar    1  UNL1        0.1024
      6 N         141.0995  141.3530  168.6073 N.ar    1  UNL1       -0.1692
      7 C         142.0067  139.2701  165.4603 C.ar    1  UNL1        0.0398
      8 C         141.1763  138.0785  165.0857 C.ar    1  UNL1        0.0238
      9 C         141.3364  137.4475  163.7345 C.ar    1  UNL1        0.0987
     10 N         142.3270  138.0082  162.7575 N.ar    1  UNL1       -0.2437
     11 C         143.1575  139.1998  163.1320 C.ar    1  UNL1        0.1087
     12 C         142.9974  139.8308  164.4834 C.ar    1  UNL1        0.1534
     13 O         143.7196  141.0152  165.0540 O.3     1  UNL1       -0.4727
     14 C         144.7803  141.8611  164.4142 C.3     1  UNL1        0.2225
     15 C         145.3808  141.7316  163.0458 C.3     1  UNL1        0.1168
     16 N         145.0689  140.7241  161.9792 N.3     1  UNL1       -0.2893
     17 C         144.0794  139.5974  162.0176 C.3     1  UNL1        0.1184
     18 H         145.9627  140.2728  161.7848 H       1  UNL1        0.1237
     19 C         140.0397  141.7700  166.1891 C.ar    1  UNL1        0.0195
     20 C         138.9270  141.0304  165.5073 C.ar    1  UNL1        0.0039
     21 C         138.0242  141.7503  164.5497 C.ar    1  UNL1        0.0297
     22 C         138.2342  143.2097  164.2740 C.ar    1  UNL1        0.1401
     23 F         137.3315  143.9297  163.3165 F       1  UNL1       -0.2042
     24 C         139.3470  143.9493  164.9559 C.ar    1  UNL1        0.0297
     25 C         140.2497  143.2293  165.9134 C.ar    1  UNL1        0.0039
@<TRIPOS>BOND
     1     1     2    1
     2     2     3   ar
     3     3     4   ar
     4     4     7    1
     5     7     8   ar
     6     8     9   ar
     7     9    10   ar
     8    10    11   ar
     9    11    12   ar
    10    12    13    1
    11    13    14    1
    12    14    15    1
    13    15    16    1
    14    16    17    1
    15     4     5   ar
    16     5    19    1
    17    19    20   ar
    18    20    21   ar
    19    21    22   ar
    20    22    23    1
    21    22    24   ar
    22    24    25   ar
    23     5     6   ar
    24     6     2   ar
    25    12     7   ar
    26    25    19   ar
    27    17    11    1
    28    16    18    1
@<TRIPOS>MOLECULE
*****
 25 28 0 0 0
SMALL
GASTEIGER

@<TRIPOS>ATOM
      1 C         141.1902  139.5059  170.2446 C.3     1  UNL1        0.1538
      2 N         141.2486  140.2527  168.9451 N.ar    1  UNL1       -0.2474
      3 C         142.4794  140.4967  168.1229 C.ar    1  UNL1        0.0967
      4 C         142.0778  141.2814  166.9092 C.ar    1  UNL1        0.0411
      5 C         140.5992  141.5223  166.9812 C.ar    1  UNL1        0.1024
      6 N         140.0866  140.8865  168.2394 N.ar    1  UNL1       -0.1692
      7 C         142.9943  141.7440  165.8155 C.ar    1  UNL1        0.0398
      8 C         143.6255  143.1026  165.8904 C.ar    1  UNL1        0.0238
      9 C         144.5419  143.5652  164.7968 C.ar    1  UNL1        0.0987
     10 N         144.8272  142.6692  163.6281 N.ar    1  UNL1       -0.2437
     11 C         144.1960  141.3104  163.5532 C.ar    1  UNL1        0.1087
     12 C         143.2795  140.8479  164.6469 C.ar    1  UNL1        0.1534
     13 O         142.5520  139.5417  164.7675 O.3     1  UNL1       -0.4727
     14 C         142.5612  138.3755  163.8241 C.3     1  UNL1        0.2225
     15 C         143.3002  138.2274  162.5272 C.3     1  UNL1        0.1168
     16 N         144.2126  139.2090  161.8534 N.3     1  UNL1       -0.2893
     17 C         144.6112  140.5811  162.3100 C.3     1  UNL1        0.1184
     18 H         143.7951  139.3568  160.9345 H       1  UNL1        0.1237
     19 C         139.7772  142.2681  165.9722 C.ar    1  UNL1        0.0195
     20 C         139.8859  143.7608  165.8718 C.ar    1  UNL1        0.0039
     21 C         139.0639  144.5065  164.8627 C.ar    1  UNL1        0.0297
     22 C         138.1331  143.7596  163.9541 C.ar    1  UNL1        0.1401
     23 F         137.3110  144.5052  162.9450 F       1  UNL1       -0.2042
     24 C         138.0243  142.2668  164.0545 C.ar    1  UNL1        0.0297
     25 C         138.8464  141.5212  165.0635 C.ar    1  UNL1        0.0039
@<TRIPOS>BOND
     1     1     2    1
     2     2     3   ar
     3     3     4   ar
     4     4     7    1
     5     7     8   ar
     6     8     9   ar
     7     9    10   ar
     8    10    11   ar
     9    11    12   ar
    10    12    13    1
    11    13    14    1
    12    14    15    1
    13    15    16    1
    14    16    17    1
    15     4     5   ar
    16     5    19    1
    17    19    20   ar
    18    20    21   ar
    19    21    22   ar
    20    22    23    1
    21    22    24   ar
    22    24    25   ar
    23     5     6   ar
    24     6     2   ar
    25    12     7   ar
    26    25    19   ar
    27    17    11    1
    28    16    18    1
@<TRIPOS>MOLECULE
*****
 25 28 0 0 0
SMALL
GASTEIGER

@<TRIPOS>ATOM
      1 C         141.0157  141.9393  171.2018 C.3     1  UNL1        0.1538
      2 N         141.1197  141.6666  169.7305 N.ar    1  UNL1       -0.2474
      3 C         140.0037  141.2127  168.8368 C.ar    1  UNL1        0.0967
      4 C         140.5523  141.0656  167.4485 C.ar    1  UNL1        0.0411
      5 C         142.0072  141.4286  167.4841 C.ar    1  UNL1        0.1024
      6 N         142.3579  141.8001  168.8944 N.ar    1  UNL1       -0.1692
      7 C         139.7813  140.6316  166.2372 C.ar    1  UNL1        0.0398
      8 C         139.5726  139.1715  165.9643 C.ar    1  UNL1        0.0238
      9 C         138.8016  138.7375  164.7531 C.ar    1  UNL1        0.0987
     10 N         138.2392  139.7637  163.8146 N.ar    1  UNL1       -0.2437
     11 C         138.4478  141.2239  164.0875 C.ar    1  UNL1        0.1087
     12 C         139.2188  141.6579  165.2988 C.ar    1  UNL1        0.1534
     13 O         139.5399  143.0507  165.7536 O.3     1  UNL1       -0.4727
     14 C         139.1691  144.3536  165.1094 C.3     1  UNL1        0.2225
     15 C         138.3858  144.5855  163.8514 C.3     1  UNL1        0.1168
     16 N         137.7798  143.5717  162.9268 N.3     1  UNL1       -0.2893
     17 C         137.8074  142.0756  163.0319 C.3     1  UNL1        0.1184
     18 H         138.1984  143.7718  162.0184 H       1  UNL1        0.1237
     19 C         142.9466  141.4214  166.3147 C.ar    1  UNL1        0.0195
     20 C         143.2543  140.1348  165.6077 C.ar    1  UNL1        0.0039
     21 C         144.1938  140.1277  164.4383 C.ar    1  UNL1        0.0297
     22 C         144.8255  141.4072  163.9760 C.ar    1  UNL1        0.1401
     23 F         145.7649  141.4002  162.8066 F       1  UNL1       -0.2042
     24 C         144.5178  142.6939  164.6830 C.ar    1  UNL1        0.0297
     25 C         143.5783  142.7009  165.8524 C.ar    1  UNL1        0.0039
@<TRIPOS>BOND
     1     1     2    1
     2     2     3   ar
     3     3     4   ar
     4     4     7    1
     5     7     8   ar
     6     8     9   ar
     7     9    10   ar
     8    10    11   ar
     9    11    12   ar
    10    12    13    1
    11    13    14    1
    12    14    15    1
    13    15    16    1
    14    16    17    1
    15     4     5   ar
    16     5    19    1
    17    19    20   ar
    18    20    21   ar
    19    21    22   ar
    20    22    23    1
    21    22    24   ar
    22    24    25   ar
    23     5     6   ar
    24     6     2   ar
    25    12     7   ar
    26    25    19   ar
    27    17    11    1
    28    16    18    1
@<TRIPOS>MOLECULE
*****
 25 28 0 0 0
SMALL
GASTEIGER

@<TRIPOS>ATOM
      1 C         140.7976  141.6408  171.0002 C.3     1  UNL1        0.1538
      2 N         140.6236  141.6173  169.5105 N.ar    1  UNL1       -0.2474
      3 C         140.6850  142.8054  168.5968 C.ar    1  UNL1        0.0967
      4 C         140.4569  142.3238  167.1945 C.ar    1  UNL1        0.0411
      5 C         140.2546  140.8384  167.2416 C.ar    1  UNL1        0.1024
      6 N         140.3576  140.4016  168.6730 N.ar    1  UNL1       -0.1692
      7 C         140.4351  143.1780  165.9617 C.ar    1  UNL1        0.0398
      8 C         139.2031  143.9589  165.6119 C.ar    1  UNL1        0.0238
      9 C         139.1812  144.8130  164.3792 C.ar    1  UNL1        0.0987
     10 N         140.3914  144.8863  163.4959 N.ar    1  UNL1       -0.2437
     11 C         141.6235  144.1054  163.8456 C.ar    1  UNL1        0.1087
     12 C         141.6454  143.2513  165.0785 C.ar    1  UNL1        0.1534
     13 O         142.7614  142.3994  165.6063 O.3     1  UNL1       -0.4727
     14 C         144.1312  142.1912  165.0317 C.3     1  UNL1        0.2225
     15 C         144.7234  142.7834  163.7873 C.3     1  UNL1        0.1168
     16 N         144.0919  143.7303  162.8102 N.3     1  UNL1       -0.2893
     17 C         142.7123  144.3186  162.8362 C.3     1  UNL1        0.1184
     18 H         144.1465  143.2465  161.9139 H       1  UNL1        0.1237
     19 C         139.9949  139.9461  166.0642 C.ar    1  UNL1        0.0195
     20 C         141.0753  139.0357  165.5603 C.ar    1  UNL1        0.0039
     21 C         140.8155  138.1434  164.3828 C.ar    1  UNL1        0.0297
     22 C         139.4754  138.1616  163.7092 C.ar    1  UNL1        0.1401
     23 F         139.2156  137.2694  162.5318 F       1  UNL1       -0.2042
     24 C         138.3950  139.0721  164.2132 C.ar    1  UNL1        0.0297
     25 C         138.6548  139.9643  165.3906 C.ar    1  UNL1        0.0039
@<TRIPOS>BOND
     1     1     2    1
     2     2     3   ar
     3     3     4   ar
     4     4     7    1
     5     7     8   ar
     6     8     9   ar
     7     9    10   ar
     8    10    11   ar
     9    11    12   ar
    10    12    13    1
    11    13    14    1
    12    14    15    1
    13    15    16    1
    14    16    17    1
    15     4     5   ar
    16     5    19    1
    17    19    20   ar
    18    20    21   ar
    19    21    22   ar
    20    22    23    1
    21    22    24   ar
    22    24    25   ar
    23     5     6   ar
    24     6     2   ar
    25    12     7   ar
    26    25    19   ar
    27    17    11    1
    28    16    18    1
@<TRIPOS>MOLECULE
*****
 25 28 0 0 0
SMALL
GASTEIGER

@<TRIPOS>ATOM
      1 C         138.5055  144.8450  165.0193 C.3     1  UNL1        0.1538
      2 N         139.5740  143.8545  165.3760 N.ar    1  UNL1       -0.2474
      3 C         140.5004  143.1720  164.4137 C.ar    1  UNL1        0.0967
      4 C         141.4027  142.2684  165.2007 C.ar    1  UNL1        0.0411
      5 C         141.0340  142.3924  166.6493 C.ar    1  UNL1        0.1024
      6 N         139.9038  143.3727  166.7577 N.ar    1  UNL1       -0.1692
      7 C         142.4839  141.3942  164.6378 C.ar    1  UNL1        0.0398
      8 C         143.9249  141.7432  164.8649 C.ar    1  UNL1        0.0238
      9 C         145.0060  140.8692  164.3020 C.ar    1  UNL1        0.0987
     10 N         144.6462  139.6458  163.5120 N.ar    1  UNL1       -0.2437
     11 C         143.2052  139.2967  163.2849 C.ar    1  UNL1        0.1087
     12 C         142.1240  140.1709  163.8478 C.ar    1  UNL1        0.1534
     13 O         140.6370  140.0062  163.7397 O.3     1  UNL1       -0.4727
     14 C         139.8640  138.9266  163.0419 C.3     1  UNL1        0.2225
     15 C         140.3869  137.7451  162.2800 C.3     1  UNL1        0.1168
     16 N         141.8121  137.3514  162.0276 N.3     1  UNL1       -0.2893
     17 C         143.0664  138.0419  162.4749 C.3     1  UNL1        0.1184
     18 H         141.8904  137.3124  161.0114 H       1  UNL1        0.1237
     19 C         141.6817  141.6641  167.7895 C.ar    1  UNL1        0.0195
     20 C         141.2715  140.2575  168.1107 C.ar    1  UNL1        0.0039
     21 C         141.9193  139.5292  169.2509 C.ar    1  UNL1        0.0297
     22 C         142.9773  140.2075  170.0699 C.ar    1  UNL1        0.1401
     23 F         143.6250  139.4793  171.2100 F       1  UNL1       -0.2042
     24 C         143.3874  141.6142  169.7486 C.ar    1  UNL1        0.0297
     25 C         142.7397  142.3424  168.6084 C.ar    1  UNL1        0.0039
@<TRIPOS>BOND
     1     1     2    1
     2     2     3   ar
     3     3     4   ar
     4     4     7    1
     5     7     8   ar
     6     8     9   ar
     7     9    10   ar
     8    10    11   ar
     9    11    12   ar
    10    12    13    1
    11    13    14    1
    12    14    15    1
    13    15    16    1
    14    16    17    1
    15     4     5   ar
    16     5    19    1
    17    19    20   ar
    18    20    21   ar
    19    21    22   ar
    20    22    23    1
    21    22    24   ar
    22    24    25   ar
    23     5     6   ar
    24     6     2   ar
    25    12     7   ar
    26    25    19   ar
    27    17    11    1
    28    16    18    1
@<TRIPOS>MOLECULE
*****
 25 28 0 0 0
SMALL
GASTEIGER

@<TRIPOS>ATOM
      1 C         143.3835  141.1640  170.2246 C.3     1  UNL1        0.1538
      2 N         142.5984  141.2256  168.9480 N.ar    1  UNL1       -0.2474
      3 C         142.2421  142.4707  168.1912 C.ar    1  UNL1        0.0967
      4 C         141.4551  142.0674  166.9795 C.ar    1  UNL1        0.0411
      5 C         141.3251  140.5731  166.9875 C.ar    1  UNL1        0.1024
      6 N         142.0316  140.0528  168.2041 N.ar    1  UNL1       -0.1692
      7 C         140.8964  142.9955  165.9420 C.ar    1  UNL1        0.0398
      8 C         139.4862  143.4925  166.0617 C.ar    1  UNL1        0.0238
      9 C         138.9274  144.4206  165.0243 C.ar    1  UNL1        0.0987
     10 N         139.7788  144.8517  163.8670 N.ar    1  UNL1       -0.2437
     11 C         141.1891  144.3547  163.7472 C.ar    1  UNL1        0.1087
     12 C         141.7478  143.4266  164.7847 C.ar    1  UNL1        0.1534
     13 O         143.1170  142.8182  164.8552 O.3     1  UNL1       -0.4727
     14 C         144.2657  142.9876  163.9055 C.3     1  UNL1        0.2225
     15 C         144.3289  143.8073  162.6508 C.3     1  UNL1        0.1168
     16 N         143.2589  144.6600  162.0360 N.3     1  UNL1       -0.2893
     17 C         141.8615  144.9036  162.5240 C.3     1  UNL1        0.1184
     18 H         143.1391  144.2817  161.0964 H       1  UNL1        0.1237
     19 C         140.6135  139.7445  165.9594 C.ar    1  UNL1        0.0195
     20 C         139.1745  139.3723  166.1612 C.ar    1  UNL1        0.0039
     21 C         138.4629  138.5436  165.1330 C.ar    1  UNL1        0.0297
     22 C         139.1903  138.0872  163.9031 C.ar    1  UNL1        0.1401
     23 F         138.4788  137.2586  162.8750 F       1  UNL1       -0.2042
     24 C         140.6294  138.4595  163.7014 C.ar    1  UNL1        0.0297
     25 C         141.3409  139.2881  164.7295 C.ar    1  UNL1        0.0039
@<TRIPOS>BOND
     1     1     2    1
     2     2     3   ar
     3     3     4   ar
     4     4     7    1
     5     7     8   ar
     6     8     9   ar
     7     9    10   ar
     8    10    11   ar
     9    11    12   ar
    10    12    13    1
    11    13    14    1
    12    14    15    1
    13    15    16    1
    14    16    17    1
    15     4     5   ar
    16     5    19    1
    17    19    20   ar
    18    20    21   ar
    19    21    22   ar
    20    22    23    1
    21    22    24   ar
    22    24    25   ar
    23     5     6   ar
    24     6     2   ar
    25    12     7   ar
    26    25    19   ar
    27    17    11    1
    28    16    18    1
