@<TRIPOS>MOLECULE
*****
 34 38 0 0 0
SMALL
GASTEIGER

@<TRIPOS>ATOM
      1 N         138.1949  139.8199  162.6034 N.3     1  UNL1       -0.2710
      2 C         138.3736  140.5488  161.3047 C.3     1  UNL1        0.0735
      3 C         138.2055  142.0384  161.2513 C.3     1  UNL1        0.0331
      4 C         137.8585  142.7990  162.4967 C.3     1  UNL1        0.0570
      5 C         137.6797  142.0701  163.7954 C.3     1  UNL1        0.0331
      6 C         137.8479  140.5805  163.8488 C.3     1  UNL1        0.0735
      7 N         137.6903  144.2887  162.4434 N.3     1  UNL1       -0.2934
      8 H         136.9434  144.5242  163.0968 H       1  UNL1        0.1236
      9 C         138.8478  145.1861  162.7672 C.3     1  UNL1        0.1152
     10 C         140.2487  144.6527  162.7124 C.ar    1  UNL1        0.0782
     11 C         140.9270  144.1961  163.9699 C.ar    1  UNL1        0.0562
     12 C         142.3279  143.6627  163.9152 C.ar    1  UNL1        0.1752
     13 C         143.0504  143.5859  162.6029 C.ar    1  UNL1        0.1914
     14 C         142.3721  144.0425  161.3454 C.ar    1  UNL1        0.1384
     15 N         140.9712  144.5759  161.4002 N.ar    1  UNL1       -0.2434
     16 O         144.4513  143.0525  162.5482 O.3     1  UNL1       -0.4668
     17 C         145.1296  142.5959  163.8057 C.3     1  UNL1        0.2527
     18 C         144.4071  142.6727  165.1179 C.3     1  UNL1        0.2526
     19 O         143.0062  143.2061  165.1727 O.3     1  UNL1       -0.4683
     20 C         138.3630  138.3303  162.6567 C.3     1  UNL1        0.0970
     21 C         139.1659  137.7051  163.7588 C.3     1  UNL1        0.1278
     22 C         140.0438  139.6993  167.6961 C.ar    1  UNL1        0.3214
     23 N         141.4270  140.1982  167.9922 N.ar    1  UNL1       -0.1926
     24 C         142.5177  140.0323  166.9758 C.ar    1  UNL1        0.1066
     25 C         142.2251  139.3676  165.6634 C.ar    1  UNL1        0.0538
     26 C         143.3157  139.2018  164.6470 C.ar    1  UNL1        0.0094
     27 C         143.0231  138.5371  163.3346 C.ar    1  UNL1        0.0609
     28 C         141.6398  138.0382  163.0385 C.ar    1  UNL1        0.2621
     29 O         141.3472  137.3735  161.7261 O.2     1  UNL1       -0.2669
     30 N         140.5492  138.2040  164.0548 N.ar    1  UNL1       -0.2790
     31 C         140.8418  138.8687  165.3673 C.ar    1  UNL1        0.1522
     32 N         139.7512  139.0346  166.3837 N.ar    1  UNL1       -0.1767
     33 C         139.2045  140.6599  169.9595 C.3     1  UNL1        0.2559
     34 O         138.9531  139.8651  168.7125 O.3     1  UNL1       -0.4426
@<TRIPOS>BOND
     1    33    34    1
     2    34    22    1
     3    22    23   ar
     4    23    24   ar
     5    24    25   ar
     6    25    26   ar
     7    26    27   ar
     8    27    28   ar
     9    28    29    2
    10    28    30   ar
    11    30    21    1
    12    21    20    1
    13    20     1    1
    14     1     2    1
    15     2     3    1
    16     3     4    1
    17     4     7    1
    18     7     9    1
    19     9    10    1
    20    10    11   ar
    21    11    12   ar
    22    12    13   ar
    23    13    14   ar
    24    14    15   ar
    25    13    16    1
    26    16    17    1
    27    17    18    1
    28    18    19    1
    29     4     5    1
    30     5     6    1
    31    30    31   ar
    32    31    32   ar
    33    32    22   ar
    34    31    25   ar
    35     6     1    1
    36    15    10   ar
    37    19    12    1
    38     7     8    1
@<TRIPOS>MOLECULE
*****
 34 38 0 0 0
SMALL
GASTEIGER

@<TRIPOS>ATOM
      1 N         143.0693  144.0809  162.5718 N.3     1  UNL1       -0.2710
      2 C         142.4557  145.0161  163.5713 C.3     1  UNL1        0.0735
      3 C         141.0022  145.3726  163.4710 C.3     1  UNL1        0.0331
      4 C         140.1622  144.7939  162.3713 C.3     1  UNL1        0.0570
      5 C         140.7757  143.8586  161.3718 C.3     1  UNL1        0.0331
      6 C         142.2293  143.5021  161.4721 C.3     1  UNL1        0.0735
      7 N         138.7086  145.1504  162.2709 N.3     1  UNL1       -0.2934
      8 H         138.4526  145.0686  161.2870 H       1  UNL1        0.1236
      9 C         137.6900  144.3717  163.0495 C.3     1  UNL1        0.1152
     10 C         137.9285  142.9234  163.3581 C.ar    1  UNL1        0.0782
     11 C         137.7924  141.8937  162.2758 C.ar    1  UNL1        0.0562
     12 C         138.0309  140.4453  162.5844 C.ar    1  UNL1        0.1752
     13 C         138.4055  140.0265  163.9752 C.ar    1  UNL1        0.1914
     14 C         138.5416  141.0562  165.0575 C.ar    1  UNL1        0.1384
     15 N         138.3030  142.5047  164.7489 N.ar    1  UNL1       -0.2434
     16 O         138.6440  138.5781  164.2838 O.3     1  UNL1       -0.4668
     17 C         138.5080  137.5485  163.2015 C.3     1  UNL1        0.2527
     18 C         138.1334  137.9672  161.8108 C.3     1  UNL1        0.2526
     19 O         137.8949  139.4156  161.5021 O.3     1  UNL1       -0.4683
     20 C         144.5229  143.7244  162.6721 C.3     1  UNL1        0.0970
     21 C         144.9446  142.5026  163.4332 C.3     1  UNL1        0.1278
     22 C         142.6685  138.6221  163.3272 C.ar    1  UNL1        0.3214
     23 N         141.8857  138.1788  164.5275 N.ar    1  UNL1       -0.1926
     24 C         141.8616  139.0289  165.7631 C.ar    1  UNL1        0.1066
     25 C         142.6203  140.3224  165.7984 C.ar    1  UNL1        0.0538
     26 C         142.5963  141.1725  167.0340 C.ar    1  UNL1        0.0094
     27 C         143.3550  142.4660  167.0694 C.ar    1  UNL1        0.0609
     28 C         144.1378  142.9093  165.8691 C.ar    1  UNL1        0.2621
     29 O         144.8965  144.2028  165.9044 O.2     1  UNL1       -0.2669
     30 N         144.1619  142.0592  164.6335 N.ar    1  UNL1       -0.2790
     31 C         143.4031  140.7657  164.5982 C.ar    1  UNL1        0.1522
     32 N         143.4272  139.9156  163.3626 N.ar    1  UNL1       -0.1767
     33 C         143.8406  137.8761  161.1319 C.3     1  UNL1        0.2559
     34 O         142.6925  137.7720  162.0916 O.3     1  UNL1       -0.4426
@<TRIPOS>BOND
     1    33    34    1
     2    34    22    1
     3    22    23   ar
     4    23    24   ar
     5    24    25   ar
     6    25    26   ar
     7    26    27   ar
     8    27    28   ar
     9    28    29    2
    10    28    30   ar
    11    30    21    1
    12    21    20    1
    13    20     1    1
    14     1     2    1
    15     2     3    1
    16     3     4    1
    17     4     7    1
    18     7     9    1
    19     9    10    1
    20    10    11   ar
    21    11    12   ar
    22    12    13   ar
    23    13    14   ar
    24    14    15   ar
    25    13    16    1
    26    16    17    1
    27    17    18    1
    28    18    19    1
    29     4     5    1
    30     5     6    1
    31    30    31   ar
    32    31    32   ar
    33    32    22   ar
    34    31    25   ar
    35     6     1    1
    36    15    10   ar
    37    19    12    1
    38     7     8    1
@<TRIPOS>MOLECULE
*****
 34 38 0 0 0
SMALL
GASTEIGER

@<TRIPOS>ATOM
      1 N         142.9414  144.0606  162.3488 N.3     1  UNL1       -0.2710
      2 C         142.0833  143.7220  161.1660 C.3     1  UNL1        0.0735
      3 C         140.6276  144.0840  161.1672 C.3     1  UNL1        0.0331
      4 C         140.0301  144.7847  162.3512 C.3     1  UNL1        0.0570
      5 C         140.8882  145.1234  163.5340 C.3     1  UNL1        0.0331
      6 C         142.3438  144.7613  163.5328 C.3     1  UNL1        0.0735
      7 N         138.5744  145.1468  162.3524 N.3     1  UNL1       -0.2934
      8 H         138.2726  145.1567  161.3782 H       1  UNL1        0.1236
      9 C         137.5910  144.2974  163.1018 C.3     1  UNL1        0.1152
     10 C         137.8041  142.8162  163.2038 C.ar    1  UNL1        0.0782
     11 C         138.1296  142.1949  164.5297 C.ar    1  UNL1        0.0562
     12 C         138.3427  140.7137  164.6318 C.ar    1  UNL1        0.1752
     13 C         138.2303  139.8536  163.4079 C.ar    1  UNL1        0.1914
     14 C         137.9047  140.4749  162.0820 C.ar    1  UNL1        0.1384
     15 N         137.6916  141.9563  161.9800 N.ar    1  UNL1       -0.2434
     16 O         138.4434  138.3724  163.5100 O.3     1  UNL1       -0.4668
     17 C         138.7689  137.7511  164.8359 C.3     1  UNL1        0.2527
     18 C         138.8814  138.6110  166.0597 C.3     1  UNL1        0.2526
     19 O         138.6683  140.0924  165.9577 O.3     1  UNL1       -0.4683
     20 C         144.3970  143.6985  162.3475 C.3     1  UNL1        0.0970
     21 C         144.9120  142.6585  163.2978 C.3     1  UNL1        0.1278
     22 C         143.6201  139.2465  160.6636 C.ar    1  UNL1        0.3214
     23 N         142.6937  138.1951  161.1986 N.ar    1  UNL1       -0.1926
     24 C         142.1980  138.2809  162.6117 C.ar    1  UNL1        0.1066
     25 C         142.6287  139.4182  163.4898 C.ar    1  UNL1        0.0538
     26 C         142.1330  139.5040  164.9029 C.ar    1  UNL1        0.0094
     27 C         142.5636  140.6413  165.7810 C.ar    1  UNL1        0.0609
     28 C         143.4900  141.6929  165.2460 C.ar    1  UNL1        0.2621
     29 O         143.9206  142.8302  166.1241 O.2     1  UNL1       -0.2669
     30 N         143.9857  141.6070  163.8329 N.ar    1  UNL1       -0.2790
     31 C         143.5550  140.4697  162.9548 C.ar    1  UNL1        0.1522
     32 N         144.0507  140.3838  161.5416 N.ar    1  UNL1       -0.1767
     33 C         143.3235  139.7821  158.1387 C.3     1  UNL1        0.2559
     34 O         144.1158  139.1607  159.2504 O.3     1  UNL1       -0.4426
@<TRIPOS>BOND
     1    33    34    1
     2    34    22    1
     3    22    23   ar
     4    23    24   ar
     5    24    25   ar
     6    25    26   ar
     7    26    27   ar
     8    27    28   ar
     9    28    29    2
    10    28    30   ar
    11    30    21    1
    12    21    20    1
    13    20     1    1
    14     1     2    1
    15     2     3    1
    16     3     4    1
    17     4     7    1
    18     7     9    1
    19     9    10    1
    20    10    11   ar
    21    11    12   ar
    22    12    13   ar
    23    13    14   ar
    24    14    15   ar
    25    13    16    1
    26    16    17    1
    27    17    18    1
    28    18    19    1
    29     4     5    1
    30     5     6    1
    31    30    31   ar
    32    31    32   ar
    33    32    22   ar
    34    31    25   ar
    35     6     1    1
    36    15    10   ar
    37    19    12    1
    38     7     8    1
@<TRIPOS>MOLECULE
*****
 34 38 0 0 0
SMALL
GASTEIGER

@<TRIPOS>ATOM
      1 N         143.3598  140.4644  160.5485 N.3     1  UNL1       -0.2710
      2 C         141.8681  140.4298  160.7021 C.3     1  UNL1        0.0735
      3 C         141.2124  139.2737  161.3973 C.3     1  UNL1        0.0331
      4 C         142.0483  138.1522  161.9390 C.3     1  UNL1        0.0570
      5 C         143.5400  138.1868  161.7854 C.3     1  UNL1        0.0331
      6 C         144.1958  139.3429  161.0901 C.3     1  UNL1        0.0735
      7 N         141.3926  136.9960  162.6342 N.3     1  UNL1       -0.2934
      8 H         142.1189  136.2979  162.7936 H       1  UNL1        0.1236
      9 C         140.6985  137.2063  163.9473 C.3     1  UNL1        0.1152
     10 C         141.2425  138.1975  164.9329 C.ar    1  UNL1        0.0782
     11 C         140.4148  139.3796  165.3423 C.ar    1  UNL1        0.0562
     12 C         140.9588  140.3708  166.3279 C.ar    1  UNL1        0.1752
     13 C         142.3305  140.1800  166.9042 C.ar    1  UNL1        0.1914
     14 C         143.1582  138.9978  166.4949 C.ar    1  UNL1        0.1384
     15 N         142.6141  138.0066  165.5092 N.ar    1  UNL1       -0.2434
     16 O         142.8745  141.1712  167.8899 O.3     1  UNL1       -0.4668
     17 C         142.0469  142.3533  168.2992 C.3     1  UNL1        0.2527
     18 C         140.6752  142.5442  167.7230 C.3     1  UNL1        0.2526
     19 O         140.1312  141.5530  166.7373 O.3     1  UNL1       -0.4683
     20 C         144.0156  141.6206  159.8532 C.3     1  UNL1        0.0970
     21 C         144.5307  142.7814  160.6514 C.3     1  UNL1        0.1278
     22 C         140.7647  145.1284  161.3987 C.ar    1  UNL1        0.3214
     23 N         140.2829  145.3462  162.8024 N.ar    1  UNL1       -0.1926
     24 C         141.0563  144.7817  163.9569 C.ar    1  UNL1        0.1066
     25 C         142.3117  143.9994  163.7078 C.ar    1  UNL1        0.0538
     26 C         143.0852  143.4349  164.8624 C.ar    1  UNL1        0.0094
     27 C         144.3405  142.6526  164.6133 C.ar    1  UNL1        0.0609
     28 C         144.8224  142.4347  163.2096 C.ar    1  UNL1        0.2621
     29 O         146.0777  141.6524  162.9605 O.2     1  UNL1       -0.2669
     30 N         144.0489  142.9992  162.0550 N.ar    1  UNL1       -0.2790
     31 C         142.7935  143.7816  162.3042 C.ar    1  UNL1        0.1522
     32 N         142.0200  144.3461  161.1496 N.ar    1  UNL1       -0.1767
     33 C         140.4281  145.4080  158.8377 C.3     1  UNL1        0.2559
     34 O         139.9912  145.6929  160.2441 O.3     1  UNL1       -0.4426
@<TRIPOS>BOND
     1    33    34    1
     2    34    22    1
     3    22    23   ar
     4    23    24   ar
     5    24    25   ar
     6    25    26   ar
     7    26    27   ar
     8    27    28   ar
     9    28    29    2
    10    28    30   ar
    11    30    21    1
    12    21    20    1
    13    20     1    1
    14     1     2    1
    15     2     3    1
    16     3     4    1
    17     4     7    1
    18     7     9    1
    19     9    10    1
    20    10    11   ar
    21    11    12   ar
    22    12    13   ar
    23    13    14   ar
    24    14    15   ar
    25    13    16    1
    26    16    17    1
    27    17    18    1
    28    18    19    1
    29     4     5    1
    30     5     6    1
    31    30    31   ar
    32    31    32   ar
    33    32    22   ar
    34    31    25   ar
    35     6     1    1
    36    15    10   ar
    37    19    12    1
    38     7     8    1
@<TRIPOS>MOLECULE
*****
 34 38 0 0 0
SMALL
GASTEIGER

@<TRIPOS>ATOM
      1 N         142.9898  141.4016  166.4712 N.3     1  UNL1       -0.2710
      2 C         143.1283  139.9080  166.4681 C.3     1  UNL1        0.0735
      3 C         143.6746  139.2079  165.2593 C.3     1  UNL1        0.0331
      4 C         144.0824  140.0014  164.0535 C.3     1  UNL1        0.0570
      5 C         143.9440  141.4949  164.0565 C.3     1  UNL1        0.0331
      6 C         143.3977  142.1951  165.2654 C.3     1  UNL1        0.0735
      7 N         144.6288  139.3012  162.8445 N.3     1  UNL1       -0.2934
      8 H         145.5232  138.8949  163.1187 H       1  UNL1        0.1236
      9 C         143.8383  138.2069  162.1905 C.3     1  UNL1        0.1152
     10 C         142.3493  138.3323  162.0602 C.ar    1  UNL1        0.0782
     11 C         141.7614  139.2904  161.0670 C.ar    1  UNL1        0.0562
     12 C         140.2723  139.4158  160.9367 C.ar    1  UNL1        0.1752
     13 C         139.3712  138.5830  161.7996 C.ar    1  UNL1        0.1914
     14 C         139.9591  137.6249  162.7927 C.ar    1  UNL1        0.1384
     15 N         141.4482  137.4995  162.9230 N.ar    1  UNL1       -0.2434
     16 O         137.8821  138.7084  161.6693 O.3     1  UNL1       -0.4668
     17 C         137.2942  139.6665  160.6761 C.3     1  UNL1        0.2527
     18 C         138.1953  140.4992  159.8133 C.3     1  UNL1        0.2526
     19 O         139.6844  140.3739  159.9436 O.3     1  UNL1       -0.4683
     20 C         142.4435  142.1017  167.6801 C.3     1  UNL1        0.0970
     21 C         140.9649  142.3107  167.8214 C.3     1  UNL1        0.1278
     22 C         139.3275  143.8440  163.9204 C.ar    1  UNL1        0.3214
     23 N         138.3720  143.0037  163.1261 N.ar    1  UNL1       -0.1926
     24 C         137.9623  141.6524  163.6321 C.ar    1  UNL1        0.1066
     25 C         138.5080  141.1413  164.9324 C.ar    1  UNL1        0.0538
     26 C         138.0983  139.7900  165.4384 C.ar    1  UNL1        0.0094
     27 C         138.6440  139.2789  166.7387 C.ar    1  UNL1        0.0609
     28 C         139.5996  140.1191  167.5331 C.ar    1  UNL1        0.2621
     29 O         140.1454  139.6080  168.8334 O.2     1  UNL1       -0.2669
     30 N         140.0094  141.4704  167.0271 N.ar    1  UNL1       -0.2790
     31 C         139.4635  141.9815  165.7267 C.ar    1  UNL1        0.1522
     32 N         139.8733  143.3329  165.2207 N.ar    1  UNL1       -0.1767
     33 C         139.9839  145.4046  161.9497 C.3     1  UNL1        0.2559
     34 O         139.7373  145.1953  163.4144 O.3     1  UNL1       -0.4426
@<TRIPOS>BOND
     1    33    34    1
     2    34    22    1
     3    22    23   ar
     4    23    24   ar
     5    24    25   ar
     6    25    26   ar
     7    26    27   ar
     8    27    28   ar
     9    28    29    2
    10    28    30   ar
    11    30    21    1
    12    21    20    1
    13    20     1    1
    14     1     2    1
    15     2     3    1
    16     3     4    1
    17     4     7    1
    18     7     9    1
    19     9    10    1
    20    10    11   ar
    21    11    12   ar
    22    12    13   ar
    23    13    14   ar
    24    14    15   ar
    25    13    16    1
    26    16    17    1
    27    17    18    1
    28    18    19    1
    29     4     5    1
    30     5     6    1
    31    30    31   ar
    32    31    32   ar
    33    32    22   ar
    34    31    25   ar
    35     6     1    1
    36    15    10   ar
    37    19    12    1
    38     7     8    1
@<TRIPOS>MOLECULE
*****
 34 38 0 0 0
SMALL
GASTEIGER

@<TRIPOS>ATOM
      1 N         141.9597  138.0538  164.0017 N.3     1  UNL1       -0.2710
      2 C         142.2614  138.3763  162.5682 C.3     1  UNL1        0.0735
      3 C         143.4581  139.2123  162.2233 C.3     1  UNL1        0.0331
      4 C         144.3532  139.7257  163.3120 C.3     1  UNL1        0.0570
      5 C         144.0515  139.4031  164.7455 C.3     1  UNL1        0.0331
      6 C         142.8548  138.5671  165.0904 C.3     1  UNL1        0.0735
      7 N         145.5500  140.5617  162.9671 N.3     1  UNL1       -0.2934
      8 H         145.6500  140.5284  161.9526 H       1  UNL1        0.1236
      9 C         145.5919  142.0090  163.3591 C.3     1  UNL1        0.1152
     10 C         144.3727  142.8667  163.1927 C.ar    1  UNL1        0.0782
     11 C         143.8841  143.2172  161.8186 C.ar    1  UNL1        0.0562
     12 C         142.6648  144.0749  161.6522 C.ar    1  UNL1        0.1752
     13 C         141.9342  144.5822  162.8601 C.ar    1  UNL1        0.1914
     14 C         142.4228  144.2317  164.2343 C.ar    1  UNL1        0.1384
     15 N         143.6421  143.3739  164.4006 N.ar    1  UNL1       -0.2434
     16 O         140.7149  145.4399  162.6937 O.3     1  UNL1       -0.4668
     17 C         140.2263  145.7904  161.3196 C.3     1  UNL1        0.2527
     18 C         140.9569  145.2832  160.1117 C.3     1  UNL1        0.2526
     19 O         142.1762  144.4254  160.2780 O.3     1  UNL1       -0.4683
     20 C         140.7629  137.2177  164.3466 C.3     1  UNL1        0.0970
     21 C         139.4944  137.8760  164.8021 C.3     1  UNL1        0.1278
     22 C         140.1448  141.8661  166.7784 C.ar    1  UNL1        0.3214
     23 N         139.6688  143.1211  166.1089 N.ar    1  UNL1       -0.1926
     24 C         138.9759  143.0461  164.7806 C.ar    1  UNL1        0.1066
     25 C         138.7591  141.7161  164.1218 C.ar    1  UNL1        0.0538
     26 C         138.0663  141.6411  162.7935 C.ar    1  UNL1        0.0094
     27 C         137.8495  140.3111  162.1348 C.ar    1  UNL1        0.0609
     28 C         138.3255  139.0560  162.8043 C.ar    1  UNL1        0.2621
     29 O         138.1087  137.7260  162.1455 O.2     1  UNL1       -0.2669
     30 N         139.0183  139.1310  164.1326 N.ar    1  UNL1       -0.2790
     31 C         139.2351  140.4611  164.7913 C.ar    1  UNL1        0.1522
     32 N         139.9280  140.5361  166.1196 N.ar    1  UNL1       -0.1767
     33 C         140.5671  143.0920  169.0298 C.3     1  UNL1        0.2559
     34 O         140.8376  141.9411  168.1067 O.3     1  UNL1       -0.4426
@<TRIPOS>BOND
     1    33    34    1
     2    34    22    1
     3    22    23   ar
     4    23    24   ar
     5    24    25   ar
     6    25    26   ar
     7    26    27   ar
     8    27    28   ar
     9    28    29    2
    10    28    30   ar
    11    30    21    1
    12    21    20    1
    13    20     1    1
    14     1     2    1
    15     2     3    1
    16     3     4    1
    17     4     7    1
    18     7     9    1
    19     9    10    1
    20    10    11   ar
    21    11    12   ar
    22    12    13   ar
    23    13    14   ar
    24    14    15   ar
    25    13    16    1
    26    16    17    1
    27    17    18    1
    28    18    19    1
    29     4     5    1
    30     5     6    1
    31    30    31   ar
    32    31    32   ar
    33    32    22   ar
    34    31    25   ar
    35     6     1    1
    36    15    10   ar
    37    19    12    1
    38     7     8    1
@<TRIPOS>MOLECULE
*****
 34 38 0 0 0
SMALL
GASTEIGER

@<TRIPOS>ATOM
      1 N         141.7472  138.2877  164.2364 N.3     1  UNL1       -0.2710
      2 C         142.8323  138.6534  165.2054 C.3     1  UNL1        0.0735
      3 C         144.0460  139.3941  164.7277 C.3     1  UNL1        0.0331
      4 C         144.1746  139.7691  163.2810 C.3     1  UNL1        0.0570
      5 C         143.0895  139.4034  162.3121 C.3     1  UNL1        0.0331
      6 C         141.8758  138.6627  162.7898 C.3     1  UNL1        0.0735
      7 N         145.3884  140.5098  162.8033 N.3     1  UNL1       -0.2934
      8 H         145.4297  140.3859  161.7917 H       1  UNL1        0.1236
      9 C         145.5207  141.9808  163.0652 C.3     1  UNL1        0.1152
     10 C         144.3091  142.8636  163.0145 C.ar    1  UNL1        0.0782
     11 C         143.7281  143.2644  161.6909 C.ar    1  UNL1        0.0562
     12 C         142.5164  144.1472  161.6401 C.ar    1  UNL1        0.1752
     13 C         141.8858  144.6292  162.9129 C.ar    1  UNL1        0.1914
     14 C         142.4667  144.2284  164.2365 C.ar    1  UNL1        0.1384
     15 N         143.6784  143.3455  164.2872 N.ar    1  UNL1       -0.2434
     16 O         140.6741  145.5120  162.8622 O.3     1  UNL1       -0.4668
     17 C         140.0931  145.9128  161.5386 C.3     1  UNL1        0.2527
     18 C         140.7238  145.4308  160.2658 C.3     1  UNL1        0.2526
     19 O         141.9355  144.5480  160.3166 O.3     1  UNL1       -0.4683
     20 C         140.5334  137.5470  164.7142 C.3     1  UNL1        0.0970
     21 C         139.3044  138.3046  165.1213 C.3     1  UNL1        0.1278
     22 C         137.7944  140.6615  161.5978 C.ar    1  UNL1        0.3214
     23 N         137.8153  142.1609  161.6340 N.ar    1  UNL1       -0.1926
     24 C         138.3395  142.8747  162.8447 C.ar    1  UNL1        0.1066
     25 C         138.8429  142.0891  164.0191 C.ar    1  UNL1        0.0538
     26 C         139.3671  142.8029  165.2298 C.ar    1  UNL1        0.0094
     27 C         139.8704  142.0173  166.4043 C.ar    1  UNL1        0.0609
     28 C         139.8496  140.5178  166.3681 C.ar    1  UNL1        0.2621
     29 O         140.3529  139.7322  167.5426 O.2     1  UNL1       -0.2669
     30 N         139.3253  139.8040  165.1575 N.ar    1  UNL1       -0.2790
     31 C         138.8220  140.5897  163.9830 C.ar    1  UNL1        0.1522
     32 N         138.2977  139.8759  162.7723 N.ar    1  UNL1       -0.1767
     33 C         137.7658  140.3229  159.0221 C.3     1  UNL1        0.2559
     34 O         137.2702  139.9477  160.3872 O.3     1  UNL1       -0.4426
@<TRIPOS>BOND
     1    33    34    1
     2    34    22    1
     3    22    23   ar
     4    23    24   ar
     5    24    25   ar
     6    25    26   ar
     7    26    27   ar
     8    27    28   ar
     9    28    29    2
    10    28    30   ar
    11    30    21    1
    12    21    20    1
    13    20     1    1
    14     1     2    1
    15     2     3    1
    16     3     4    1
    17     4     7    1
    18     7     9    1
    19     9    10    1
    20    10    11   ar
    21    11    12   ar
    22    12    13   ar
    23    13    14   ar
    24    14    15   ar
    25    13    16    1
    26    16    17    1
    27    17    18    1
    28    18    19    1
    29     4     5    1
    30     5     6    1
    31    30    31   ar
    32    31    32   ar
    33    32    22   ar
    34    31    25   ar
    35     6     1    1
    36    15    10   ar
    37    19    12    1
    38     7     8    1
@<TRIPOS>MOLECULE
*****
 34 38 0 0 0
SMALL
GASTEIGER

@<TRIPOS>ATOM
      1 N         141.0480  144.8108  162.7085 N.3     1  UNL1       -0.2710
      2 C         142.0861  144.9799  163.7780 C.3     1  UNL1        0.0735
      3 C         143.4679  144.4328  163.5752 C.3     1  UNL1        0.0331
      4 C         143.8117  143.7167  162.3029 C.3     1  UNL1        0.0570
      5 C         142.7737  143.5476  161.2334 C.3     1  UNL1        0.0331
      6 C         141.3918  144.0946  161.4362 C.3     1  UNL1        0.0735
      7 N         145.1936  143.1696  162.1000 N.3     1  UNL1       -0.2934
      8 H         145.8378  143.8255  162.5417 H       1  UNL1        0.1236
      9 C         145.5434  141.8053  162.6161 C.3     1  UNL1        0.1152
     10 C         144.5445  140.6900  162.5247 C.ar    1  UNL1        0.0782
     11 C         143.8529  140.1993  163.7620 C.ar    1  UNL1        0.0562
     12 C         142.8540  139.0840  163.6706 C.ar    1  UNL1        0.1752
     13 C         142.5467  138.4594  162.3418 C.ar    1  UNL1        0.1914
     14 C         143.2383  138.9502  161.1045 C.ar    1  UNL1        0.1384
     15 N         144.2372  140.0655  161.1960 N.ar    1  UNL1       -0.2434
     16 O         141.5478  137.3442  162.2504 O.3     1  UNL1       -0.4668
     17 C         140.8562  136.8534  163.4877 C.3     1  UNL1        0.2527
     18 C         141.1635  137.4779  164.8164 C.3     1  UNL1        0.2526
     19 O         142.1625  138.5932  164.9079 O.3     1  UNL1       -0.4683
     20 C         139.6661  145.3579  162.9114 C.3     1  UNL1        0.0970
     21 C         138.7410  144.7111  163.8992 C.3     1  UNL1        0.1278
     22 C         140.2272  142.5550  167.5588 C.ar    1  UNL1        0.3214
     23 N         140.1389  141.0596  167.6358 N.ar    1  UNL1       -0.1926
     24 C         139.5551  140.2829  166.4930 C.ar    1  UNL1        0.1066
     25 C         139.0597  141.0016  165.2732 C.ar    1  UNL1        0.0538
     26 C         138.4760  140.2249  164.1304 C.ar    1  UNL1        0.0094
     27 C         137.9806  140.9436  162.9105 C.ar    1  UNL1        0.0609
     28 C         138.0689  142.4390  162.8335 C.ar    1  UNL1        0.2621
     29 O         137.5735  143.1577  161.6136 O.2     1  UNL1       -0.2669
     30 N         138.6527  143.2157  163.9762 N.ar    1  UNL1       -0.2790
     31 C         139.1481  142.4970  165.1961 C.ar    1  UNL1        0.1522
     32 N         139.7318  143.2737  166.3389 N.ar    1  UNL1       -0.1767
     33 C         140.3065  143.1072  170.0962 C.3     1  UNL1        0.2559
     34 O         140.8109  143.3317  168.7016 O.3     1  UNL1       -0.4426
@<TRIPOS>BOND
     1    33    34    1
     2    34    22    1
     3    22    23   ar
     4    23    24   ar
     5    24    25   ar
     6    25    26   ar
     7    26    27   ar
     8    27    28   ar
     9    28    29    2
    10    28    30   ar
    11    30    21    1
    12    21    20    1
    13    20     1    1
    14     1     2    1
    15     2     3    1
    16     3     4    1
    17     4     7    1
    18     7     9    1
    19     9    10    1
    20    10    11   ar
    21    11    12   ar
    22    12    13   ar
    23    13    14   ar
    24    14    15   ar
    25    13    16    1
    26    16    17    1
    27    17    18    1
    28    18    19    1
    29     4     5    1
    30     5     6    1
    31    30    31   ar
    32    31    32   ar
    33    32    22   ar
    34    31    25   ar
    35     6     1    1
    36    15    10   ar
    37    19    12    1
    38     7     8    1
@<TRIPOS>MOLECULE
*****
 34 38 0 0 0
SMALL
GASTEIGER

@<TRIPOS>ATOM
      1 N         137.8459  142.9895  162.7991 N.3     1  UNL1       -0.2710
      2 C         138.1867  142.7699  161.3549 C.3     1  UNL1        0.0735
      3 C         138.2612  141.3761  160.8055 C.3     1  UNL1        0.0331
      4 C         137.9949  140.2020  161.7002 C.3     1  UNL1        0.0570
      5 C         137.6541  140.4217  163.1443 C.3     1  UNL1        0.0331
      6 C         137.5796  141.8154  163.6938 C.3     1  UNL1        0.0735
      7 N         138.0693  138.8082  161.1507 N.3     1  UNL1       -0.2934
      8 H         137.6929  138.8446  160.2034 H       1  UNL1        0.1236
      9 C         139.3919  138.1058  161.0644 C.3     1  UNL1        0.1152
     10 C         140.3214  138.1096  162.2417 C.ar    1  UNL1        0.0782
     11 C         141.6841  138.7243  162.1193 C.ar    1  UNL1        0.0562
     12 C         142.6136  138.7281  163.2966 C.ar    1  UNL1        0.1752
     13 C         142.1804  138.1172  164.5962 C.ar    1  UNL1        0.1914
     14 C         140.8176  137.5024  164.7186 C.ar    1  UNL1        0.1384
     15 N         139.8881  137.4987  163.5412 N.ar    1  UNL1       -0.2434
     16 O         143.1099  138.1210  165.7735 O.3     1  UNL1       -0.4668
     17 C         144.4727  138.7357  165.6512 C.3     1  UNL1        0.2527
     18 C         144.9059  139.3467  164.3516 C.3     1  UNL1        0.2526
     19 O         143.9764  139.3429  163.1742 O.3     1  UNL1       -0.4683
     20 C         137.7715  144.3833  163.3485 C.3     1  UNL1        0.0970
     21 C         138.8144  144.8662  164.3125 C.3     1  UNL1        0.1278
     22 C         140.7924  141.9866  167.1489 C.ar    1  UNL1        0.3214
     23 N         142.2299  141.6070  166.9509 N.ar    1  UNL1       -0.1926
     24 C         143.0082  142.1872  165.8074 C.ar    1  UNL1        0.1066
     25 C         142.3489  143.1471  164.8619 C.ar    1  UNL1        0.0538
     26 C         143.1271  143.7273  163.7184 C.ar    1  UNL1        0.0094
     27 C         142.4678  144.6871  162.7729 C.ar    1  UNL1        0.0609
     28 C         141.0302  145.0668  162.9709 C.ar    1  UNL1        0.2621
     29 O         140.3709  146.0266  162.0255 O.2     1  UNL1       -0.2669
     30 N         140.2519  144.4866  164.1145 N.ar    1  UNL1       -0.2790
     31 C         140.9113  143.5267  165.0600 C.ar    1  UNL1        0.1522
     32 N         140.1331  142.9464  166.2035 N.ar    1  UNL1       -0.1767
     33 C         139.6426  139.9531  168.2861 C.3     1  UNL1        0.2559
     34 O         140.0141  141.4063  168.2925 O.3     1  UNL1       -0.4426
@<TRIPOS>BOND
     1    33    34    1
     2    34    22    1
     3    22    23   ar
     4    23    24   ar
     5    24    25   ar
     6    25    26   ar
     7    26    27   ar
     8    27    28   ar
     9    28    29    2
    10    28    30   ar
    11    30    21    1
    12    21    20    1
    13    20     1    1
    14     1     2    1
    15     2     3    1
    16     3     4    1
    17     4     7    1
    18     7     9    1
    19     9    10    1
    20    10    11   ar
    21    11    12   ar
    22    12    13   ar
    23    13    14   ar
    24    14    15   ar
    25    13    16    1
    26    16    17    1
    27    17    18    1
    28    18    19    1
    29     4     5    1
    30     5     6    1
    31    30    31   ar
    32    31    32   ar
    33    32    22   ar
    34    31    25   ar
    35     6     1    1
    36    15    10   ar
    37    19    12    1
    38     7     8    1
