@<TRIPOS>MOLECULE
*****
 35 39 0 0 0
SMALL
GASTEIGER

@<TRIPOS>ATOM
      1 C         141.1240  140.9791  165.8192 C.ar    1  UNL1        0.2359
      2 N         140.2876  142.1606  165.4260 N.ar    1  UNL1       -0.1904
      3 C         141.1341  143.0678  164.5832 C.ar    1  UNL1        0.2006
      4 C         140.8425  144.3789  163.9155 C.ar    1  UNL1        0.1746
      5 C         141.9106  145.0693  163.1200 C.ar    1  UNL1        0.0416
      6 C         143.2700  144.4486  162.9923 C.ar    1  UNL1        0.0264
      7 C         143.5616  143.1374  163.6599 C.ar    1  UNL1        0.1560
      8 N         142.4936  142.4470  164.4554 N.ar    1  UNL1       -0.2028
      9 N         142.4874  141.1561  165.2193 N.ar    1  UNL1       -0.1284
     10 C         144.9211  142.5166  163.5321 C.3     1  UNL1        0.4349
     11 F         146.2807  141.8959  163.4044 F       1  UNL1       -0.1644
     12 F         144.5917  142.0830  162.1345 F       1  UNL1       -0.1644
     13 F         145.2505  142.9503  164.9298 F       1  UNL1       -0.1644
     14 N         140.6758  139.8235  166.6639 N.pl3   1  UNL1       -0.3033
     15 H         140.3373  139.0036  166.2368 H       1  UNL1        0.1496
     16 N         140.7662  139.8194  166.7921 N.pl3   1  UNL1       -0.2619
     17 C         139.5151  140.0520  167.5862 C.3     1  UNL1        0.0967
     18 C         139.5826  140.1455  169.0819 C.3     1  UNL1        0.0379
     19 C         140.1052  140.1682  170.4877 C.3     1  UNL1        0.0035
     20 C         141.5888  139.9537  170.4342 C.3     1  UNL1        0.0035
     21 C         141.9831  139.7985  168.9954 C.3     1  UNL1        0.0379
     22 C         142.0848  139.6805  167.4937 C.3     1  UNL1        0.0967
     23 C         140.7432  139.9170  168.1595 C.3     1  UNL1        0.0750
     24 C         139.0001  140.0420  161.8211 C.3     1  UNL1        0.0774
     25 C         139.8871  139.8282  163.0117 C.ar    1  UNL1        0.1825
     26 N         141.3036  139.3356  162.9787 N.ar    1  UNL1       -0.0586
     27 O         141.8053  139.2723  164.3909 O.2     1  UNL1       -0.3167
     28 C         140.6989  139.7259  165.2966 C.ar    1  UNL1        0.3182
     29 N         139.5134  140.0694  164.4442 N.ar    1  UNL1       -0.1778
     30 O         139.4830  144.9998  164.0433 O.3     1  UNL1       -0.4635
     31 C         138.4041  144.6514  163.0611 C.3     1  UNL1        0.3082
     32 C         137.6487  143.3633  163.2025 C.3     1  UNL1        0.4380
     33 F         136.8933  142.0751  163.3439 F       1  UNL1       -0.1663
     34 F         137.7672  143.1317  161.7252 F       1  UNL1       -0.1663
     35 F         137.5303  143.5949  164.6798 F       1  UNL1       -0.1663
@<TRIPOS>BOND
     1    24    25    1
     2    25    26   ar
     3    26    27   ar
     4    27    28   ar
     5    28    16    1
     6    16    17    1
     7    18    17    1
     8    18    19    1
     9    19    20    1
    10    21    20    1
    11    21    22    1
    12    21    23    1
    13    23    14    1
    14    14     1    1
    15     1     2   ar
    16     2     3   ar
    17     3     4   ar
    18     4    30    1
    19    30    31    1
    20    31    32    1
    21    32    33    1
    22    32    34    1
    23    32    35    1
    24     4     5   ar
    25     5     6   ar
    26     6     7   ar
    27     7    10    1
    28    10    11    1
    29    10    12    1
    30    10    13    1
    31     7     8   ar
    32     8     9   ar
    33    28    29   ar
    34    29    25   ar
    35    22    16    1
    36     9     1   ar
    37    23    18    1
    38     8     3   ar
    39    14    15    1
@<TRIPOS>MOLECULE
*****
 35 39 0 0 0
SMALL
GASTEIGER

@<TRIPOS>ATOM
      1 C         141.3627  141.2336  166.3265 C.ar    1  UNL1        0.2359
      2 N         142.5346  141.8269  165.6021 N.ar    1  UNL1       -0.1904
      3 C         142.0536  143.0340  164.8528 C.ar    1  UNL1        0.2006
      4 C         142.7637  144.0138  163.9664 C.ar    1  UNL1        0.1746
      5 C         142.0045  145.1465  163.3412 C.ar    1  UNL1        0.0416
      6 C         140.5354  145.2992  163.6024 C.ar    1  UNL1        0.0264
      7 C         139.8253  144.3194  164.4888 C.ar    1  UNL1        0.1560
      8 N         140.5845  143.1868  165.1140 N.ar    1  UNL1       -0.2028
      9 N         140.1574  142.0741  166.0248 N.ar    1  UNL1       -0.1284
     10 C         138.3562  144.4722  164.7500 C.3     1  UNL1        0.4349
     11 F         136.8870  144.6250  165.0111 F       1  UNL1       -0.1644
     12 F         138.6575  145.3316  165.9420 F       1  UNL1       -0.1644
     13 F         138.0549  143.6129  163.5580 F       1  UNL1       -0.1644
     14 N         141.3910  140.0140  167.1992 N.pl3   1  UNL1       -0.3033
     15 H         141.3646  139.1175  166.7933 H       1  UNL1        0.1496
     16 N         141.3118  140.0325  167.3335 N.pl3   1  UNL1       -0.2619
     17 C         142.6412  140.0201  168.0280 C.3     1  UNL1        0.0967
     18 C         142.7098  140.1664  169.5193 C.3     1  UNL1        0.0379
     19 C         142.3129  140.3361  170.9558 C.3     1  UNL1        0.0035
     20 C         140.8173  140.4349  171.0149 C.3     1  UNL1        0.0035
     21 C         140.2900  140.3263  169.6149 C.3     1  UNL1        0.0379
     22 C         140.0509  140.1912  168.1304 C.3     1  UNL1        0.0967
     23 C         141.4595  140.1604  168.6905 C.3     1  UNL1        0.0750
     24 C         139.4549  139.6448  162.4059 C.3     1  UNL1        0.0774
     25 C         140.3896  139.7080  163.5773 C.ar    1  UNL1        0.1825
     26 N         141.8856  139.6140  163.5176 N.ar    1  UNL1       -0.0586
     27 O         142.4131  139.7242  164.9175 O.2     1  UNL1       -0.3167
     28 C         141.2431  139.8862  165.8423 C.ar    1  UNL1        0.3182
     29 N         139.9926  139.8761  165.0139 N.ar    1  UNL1       -0.1778
     30 O         144.2329  143.8611  163.7051 O.3     1  UNL1       -0.4635
     31 C         144.7226  142.7844  162.7828 C.3     1  UNL1        0.3082
     32 C         145.2171  141.4841  163.3438 C.3     1  UNL1        0.4380
     33 F         145.7116  140.1838  163.9048 F       1  UNL1       -0.1663
     34 F         145.7218  142.2011  164.5609 F       1  UNL1       -0.1663
     35 F         144.7125  140.7671  162.1268 F       1  UNL1       -0.1663
@<TRIPOS>BOND
     1    24    25    1
     2    25    26   ar
     3    26    27   ar
     4    27    28   ar
     5    28    16    1
     6    16    17    1
     7    18    17    1
     8    18    19    1
     9    19    20    1
    10    21    20    1
    11    21    22    1
    12    21    23    1
    13    23    14    1
    14    14     1    1
    15     1     2   ar
    16     2     3   ar
    17     3     4   ar
    18     4    30    1
    19    30    31    1
    20    31    32    1
    21    32    33    1
    22    32    34    1
    23    32    35    1
    24     4     5   ar
    25     5     6   ar
    26     6     7   ar
    27     7    10    1
    28    10    11    1
    29    10    12    1
    30    10    13    1
    31     7     8   ar
    32     8     9   ar
    33    28    29   ar
    34    29    25   ar
    35    22    16    1
    36     9     1   ar
    37    23    18    1
    38     8     3   ar
    39    14    15    1
@<TRIPOS>MOLECULE
*****
 35 39 0 0 0
SMALL
GASTEIGER

@<TRIPOS>ATOM
      1 C         141.4272  140.5760  166.1803 C.ar    1  UNL1        0.2359
      2 N         140.3994  141.2468  165.3180 N.ar    1  UNL1       -0.1904
      3 C         141.1097  141.8836  164.1605 C.ar    1  UNL1        0.2006
      4 C         140.6104  142.6801  162.9917 C.ar    1  UNL1        0.1746
      5 C         141.5779  143.1994  161.9697 C.ar    1  UNL1        0.0416
      6 C         143.0446  142.9222  162.1166 C.ar    1  UNL1        0.0264
      7 C         143.5440  142.1257  163.2854 C.ar    1  UNL1        0.1560
      8 N         142.5766  141.6064  164.3074 N.ar    1  UNL1       -0.2028
      9 N         142.7728  140.7982  165.5557 N.ar    1  UNL1       -0.1284
     10 C         145.0108  141.8484  163.4323 C.3     1  UNL1        0.4349
     11 F         146.4777  141.5711  163.5791 F       1  UNL1       -0.1644
     12 F         145.0837  142.8324  164.5622 F       1  UNL1       -0.1644
     13 F         144.9380  140.8645  162.3025 F       1  UNL1       -0.1644
     14 N         141.1570  139.8164  167.4452 N.pl3   1  UNL1       -0.3033
     15 H         140.9624  138.8520  167.4082 H       1  UNL1        0.1496
     16 N         141.2448  139.8763  167.5607 N.pl3   1  UNL1       -0.2619
     17 C         139.9594  140.2667  168.2281 C.3     1  UNL1        0.0967
     18 C         139.9857  140.9764  169.5494 C.3     1  UNL1        0.0379
     19 C         140.4740  141.6386  170.8036 C.3     1  UNL1        0.0035
     20 C         141.9734  141.5975  170.7958 C.3     1  UNL1        0.0035
     21 C         142.4118  140.9099  169.5369 C.3     1  UNL1        0.0379
     22 C         142.5564  140.1956  168.2147 C.3     1  UNL1        0.0967
     23 C         141.1833  140.5260  168.7664 C.3     1  UNL1        0.0750
     24 C         139.5384  137.6929  163.0662 C.3     1  UNL1        0.0774
     25 C         140.4343  138.1631  164.1736 C.ar    1  UNL1        0.1825
     26 N         141.9224  137.9862  164.2390 N.ar    1  UNL1       -0.0586
     27 O         142.4072  138.6065  165.5159 O.2     1  UNL1       -0.3167
     28 C         141.2186  139.1667  166.2395 C.ar    1  UNL1        0.3182
     29 N         139.9993  138.8926  165.4099 N.ar    1  UNL1       -0.1778
     30 O         139.1435  142.9574  162.8447 O.3     1  UNL1       -0.4635
     31 C         138.5870  144.2884  163.2554 C.3     1  UNL1        0.3082
     32 C         138.6111  144.6985  164.6980 C.3     1  UNL1        0.4380
     33 F         138.6353  145.1086  166.1407 F       1  UNL1       -0.1663
     34 F         139.9639  145.3156  164.5000 F       1  UNL1       -0.1663
     35 F         137.2584  144.0814  164.8961 F       1  UNL1       -0.1663
@<TRIPOS>BOND
     1    24    25    1
     2    25    26   ar
     3    26    27   ar
     4    27    28   ar
     5    28    16    1
     6    16    17    1
     7    18    17    1
     8    18    19    1
     9    19    20    1
    10    21    20    1
    11    21    22    1
    12    21    23    1
    13    23    14    1
    14    14     1    1
    15     1     2   ar
    16     2     3   ar
    17     3     4   ar
    18     4    30    1
    19    30    31    1
    20    31    32    1
    21    32    33    1
    22    32    34    1
    23    32    35    1
    24     4     5   ar
    25     5     6   ar
    26     6     7   ar
    27     7    10    1
    28    10    11    1
    29    10    12    1
    30    10    13    1
    31     7     8   ar
    32     8     9   ar
    33    28    29   ar
    34    29    25   ar
    35    22    16    1
    36     9     1   ar
    37    23    18    1
    38     8     3   ar
    39    14    15    1
@<TRIPOS>MOLECULE
*****
 35 39 0 0 0
SMALL
GASTEIGER

@<TRIPOS>ATOM
      1 C         140.4915  141.5536  165.7304 C.ar    1  UNL1        0.2359
      2 N         139.8607  140.3937  165.0185 N.ar    1  UNL1       -0.1904
      3 C         139.2108  140.9137  163.7706 C.ar    1  UNL1        0.2006
      4 C         138.4400  140.2297  162.6807 C.ar    1  UNL1        0.1746
      5 C         137.8983  141.0271  161.5313 C.ar    1  UNL1        0.0416
      6 C         138.1275  142.5082  161.4719 C.ar    1  UNL1        0.0264
      7 C         138.8983  143.1921  162.5619 C.ar    1  UNL1        0.1560
      8 N         139.4400  142.3949  163.7112 N.ar    1  UNL1       -0.2028
      9 N         140.2315  142.7904  164.9225 N.ar    1  UNL1       -0.1284
     10 C         139.1275  144.6733  162.5025 C.3     1  UNL1        0.4349
     11 F         139.3568  146.1546  162.4431 F       1  UNL1       -0.1644
     12 F         137.6932  144.9101  162.8721 F       1  UNL1       -0.1644
     13 F         140.5619  144.4366  162.1329 F       1  UNL1       -0.1644
     14 N         141.2492  141.4882  167.0233 N.pl3   1  UNL1       -0.3033
     15 H         142.2285  141.3871  167.0153 H       1  UNL1        0.1496
     16 N         141.1556  141.4164  167.1268 N.pl3   1  UNL1       -0.2619
     17 C         141.2324  142.6699  167.9469 C.3     1  UNL1        0.0967
     18 C         140.4981  142.7585  169.2520 C.3     1  UNL1        0.0379
     19 C         139.6414  142.4113  170.4333 C.3     1  UNL1        0.0035
     20 C         139.1288  141.0150  170.2397 C.3     1  UNL1        0.0035
     21 C         139.6687  140.4992  168.9388 C.3     1  UNL1        0.0379
     22 C         140.3445  140.2514  167.6117 C.3     1  UNL1        0.0967
     23 C         140.5150  141.5768  168.3283 C.3     1  UNL1        0.0750
     24 C         143.5425  139.4910  162.8284 C.3     1  UNL1        0.0774
     25 C         142.9869  140.4427  163.8461 C.ar    1  UNL1        0.1825
     26 N         143.0523  141.9400  163.7811 N.ar    1  UNL1       -0.0586
     27 O         142.3742  142.4869  165.0022 O.2     1  UNL1       -0.3167
     28 C         141.8898  141.3277  165.8218 C.ar    1  UNL1        0.3182
     29 N         142.2684  140.0644  165.1072 N.ar    1  UNL1       -0.1778
     30 O         138.2107  138.7485  162.7400 O.3     1  UNL1       -0.4635
     31 C         139.2921  137.8042  162.3053 C.3     1  UNL1        0.3082
     32 C         140.2906  137.2971  163.3033 C.3     1  UNL1        0.4380
     33 F         141.2891  136.7900  164.3012 F       1  UNL1       -0.1663
     34 F         139.2473  137.3602  164.3792 F       1  UNL1       -0.1663
     35 F         141.3339  137.2340  162.2273 F       1  UNL1       -0.1663
@<TRIPOS>BOND
     1    24    25    1
     2    25    26   ar
     3    26    27   ar
     4    27    28   ar
     5    28    16    1
     6    16    17    1
     7    18    17    1
     8    18    19    1
     9    19    20    1
    10    21    20    1
    11    21    22    1
    12    21    23    1
    13    23    14    1
    14    14     1    1
    15     1     2   ar
    16     2     3   ar
    17     3     4   ar
    18     4    30    1
    19    30    31    1
    20    31    32    1
    21    32    33    1
    22    32    34    1
    23    32    35    1
    24     4     5   ar
    25     5     6   ar
    26     6     7   ar
    27     7    10    1
    28    10    11    1
    29    10    12    1
    30    10    13    1
    31     7     8   ar
    32     8     9   ar
    33    28    29   ar
    34    29    25   ar
    35    22    16    1
    36     9     1   ar
    37    23    18    1
    38     8     3   ar
    39    14    15    1
@<TRIPOS>MOLECULE
*****
 35 39 0 0 0
SMALL
GASTEIGER

@<TRIPOS>ATOM
      1 C         141.0853  141.3994  166.2108 C.ar    1  UNL1        0.2359
      2 N         141.6638  140.2342  165.4640 N.ar    1  UNL1       -0.1904
      3 C         142.8141  140.7355  164.6421 C.ar    1  UNL1        0.2006
      4 C         143.7581  140.0394  163.7071 C.ar    1  UNL1        0.1746
      5 C         144.8346  140.8183  163.0110 C.ar    1  UNL1        0.0416
      6 C         144.9671  142.2931  163.2499 C.ar    1  UNL1        0.0264
      7 C         144.0231  142.9892  164.1849 C.ar    1  UNL1        0.1560
      8 N         142.9466  142.2104  164.8811 N.ar    1  UNL1       -0.2028
      9 N         141.8781  142.6207  165.8506 N.ar    1  UNL1       -0.1284
     10 C         144.1556  144.4641  164.4239 C.3     1  UNL1        0.4349
     11 F         144.2882  145.9390  164.6629 F       1  UNL1       -0.1644
     12 F         143.4247  144.7373  163.1428 F       1  UNL1       -0.1644
     13 F         144.8866  144.1909  165.7049 F       1  UNL1       -0.1644
     14 N         139.9188  141.3516  167.1526 N.pl3   1  UNL1       -0.3033
     15 H         139.0014  141.4312  166.8043 H       1  UNL1        0.1496
     16 N         139.9671  141.4174  167.2867 N.pl3   1  UNL1       -0.2619
     17 C         139.6566  140.1079  167.9491 C.3     1  UNL1        0.0967
     18 C         139.8878  139.9388  169.4216 C.3     1  UNL1        0.0379
     19 C         140.2598  140.2150  170.8482 C.3     1  UNL1        0.0035
     20 C         140.7518  141.6295  170.9333 C.3     1  UNL1        0.0035
     21 C         140.6839  142.2274  169.5594 C.3     1  UNL1        0.0379
     22 C         140.5088  142.5578  168.0967 C.3     1  UNL1        0.0967
     23 C         140.1500  141.1825  168.6250 C.3     1  UNL1        0.0750
     24 C         138.9317  140.3797  162.2141 C.3     1  UNL1        0.0774
     25 C         139.2600  141.1096  163.4827 C.ar    1  UNL1        0.1825
     26 N         139.5004  142.5844  163.6144 N.ar    1  UNL1       -0.0586
     27 O         139.7945  142.8792  165.0555 O.2     1  UNL1       -0.3167
     28 C         139.7359  141.5866  165.8143 C.ar    1  UNL1        0.3182
     29 N         139.4056  140.4929  164.8423 N.ar    1  UNL1       -0.1778
     30 O         143.6257  138.5644  163.4681 O.3     1  UNL1       -0.4635
     31 C         142.7248  138.0588  162.3806 C.3     1  UNL1        0.3082
     32 C         141.3406  137.5859  162.7127 C.3     1  UNL1        0.4380
     33 F         139.9564  137.1129  163.0449 F       1  UNL1       -0.1663
     34 F         140.9177  137.8272  161.2940 F       1  UNL1       -0.1663
     35 F         141.7635  137.3445  164.1315 F       1  UNL1       -0.1663
@<TRIPOS>BOND
     1    24    25    1
     2    25    26   ar
     3    26    27   ar
     4    27    28   ar
     5    28    16    1
     6    16    17    1
     7    18    17    1
     8    18    19    1
     9    19    20    1
    10    21    20    1
    11    21    22    1
    12    21    23    1
    13    23    14    1
    14    14     1    1
    15     1     2   ar
    16     2     3   ar
    17     3     4   ar
    18     4    30    1
    19    30    31    1
    20    31    32    1
    21    32    33    1
    22    32    34    1
    23    32    35    1
    24     4     5   ar
    25     5     6   ar
    26     6     7   ar
    27     7    10    1
    28    10    11    1
    29    10    12    1
    30    10    13    1
    31     7     8   ar
    32     8     9   ar
    33    28    29   ar
    34    29    25   ar
    35    22    16    1
    36     9     1   ar
    37    23    18    1
    38     8     3   ar
    39    14    15    1
