@<TRIPOS>MOLECULE
*****
 41 46 0 0 0
SMALL
GASTEIGER

@<TRIPOS>ATOM
      1 C         141.5565  138.5392  164.5154 C.3     1  UNL1        0.0936
      2 C         141.5933  139.0700  163.1129 C.3     1  UNL1        0.0287
      3 C         142.8465  139.7009  162.5824 C.3     1  UNL1        0.0193
      4 C         144.0629  139.8011  163.4544 C.3     1  UNL1        0.0700
      5 C         144.0261  139.2703  164.8569 C.3     1  UNL1        0.0193
      6 C         142.7729  138.6393  165.3874 C.3     1  UNL1        0.0287
      7 C         143.3992  139.4470  163.7892 C.3     1  UNL1        0.1562
      8 O         142.2661  138.8765  164.2689 O.3     1  UNL1       -0.3571
      9 N         145.3161  140.4320  162.9239 N.3     1  UNL1       -0.2926
     10 H         145.3498  140.2257  161.9256 H       1  UNL1        0.1236
     11 C         145.5310  141.9095  163.0682 C.3     1  UNL1        0.1152
     12 C         144.3647  142.8489  162.9833 C.ar    1  UNL1        0.0765
     13 C         143.8208  143.4839  164.2287 C.ar    1  UNL1        0.0193
     14 C         142.6545  144.4233  164.1437 C.ar    1  UNL1        0.0411
     15 C         142.0321  144.7277  162.8134 C.ar    1  UNL1        0.1708
     16 C         142.5759  144.0928  161.5680 C.ar    1  UNL1        0.1682
     17 N         143.7423  143.1533  161.6529 N.ar    1  UNL1       -0.2304
     18 N         141.9534  144.3972  160.2376 N.am    1  UNL1       -0.2639
     19 C         140.7871  145.3366  160.1527 C.2     1  UNL1        0.2718
     20 O         140.1647  145.6411  158.8223 O.2     1  UNL1       -0.2707
     21 C         140.2433  145.9716  161.3981 C.3     1  UNL1        0.2898
     22 O         140.8657  145.6672  162.7285 O.3     1  UNL1       -0.4628
     23 H         142.3104  143.9805  159.4202 H       1  UNL1        0.1565
     24 C         140.3034  137.9082  165.0459 C.3     1  UNL1        0.0373
     25 C         139.3682  138.7057  165.9060 C.3     1  UNL1        0.0649
     26 C         137.8000  141.6021  162.8399 C.ar    1  UNL1        0.2250
     27 C         138.0182  143.0753  163.0192 C.ar    1  UNL1        0.0593
     28 C         138.7590  143.5830  164.2207 C.ar    1  UNL1        0.0254
     29 C         139.2817  142.6175  165.2427 C.ar    1  UNL1        0.0990
     30 N         140.0226  143.1252  166.4441 N.ar    1  UNL1       -0.2400
     31 C         140.5453  142.1597  167.4661 C.ar    1  UNL1        0.1281
     32 C         140.3272  140.6865  167.2868 C.ar    1  UNL1        0.1570
     33 F         140.8499  139.7210  168.3088 F       1  UNL1       -0.2028
     34 C         139.5864  140.1788  166.0854 C.ar    1  UNL1        0.0310
     35 C         139.0636  141.1444  165.0633 C.ar    1  UNL1        0.1005
     36 N         138.3228  140.6367  163.8619 N.ar    1  UNL1       -0.2104
     37 C         137.6409  139.9863  160.8116 C.3     1  UNL1        0.2542
     38 O         137.0592  141.0944  161.6385 O.3     1  UNL1       -0.4561
     39 C         138.2150  138.0299  166.5867 C.2     1  UNL1        0.0543
     40 O         137.7383  136.6922  166.1037 O.co2   1  UNL1       -0.5488
     41 O         137.5385  138.6918  167.7504 O.co2   1  UNL1       -0.5488
@<TRIPOS>UNITY_ATOM_ATTR
40 1
charge -1
@<TRIPOS>BOND
     1    37    38    1
     2    38    26    1
     3    26    27   ar
     4    27    28   ar
     5    28    29   ar
     6    29    30   ar
     7    30    31   ar
     8    31    32   ar
     9    32    33    1
    10    32    34   ar
    11    34    25    1
    12    25    24    1
    13    24     1    1
    14     1     2    1
    15     2     3    1
    16     3     4    1
    17     4     9    1
    18     9    11    1
    19    11    12    1
    20    12    13   ar
    21    13    14   ar
    22    14    15   ar
    23    15    16   ar
    24    16    17   ar
    25    16    18    1
    26    18    19   am
    27    19    20    2
    28    19    21    1
    29    21    22    1
    30     4     5    1
    31     5     6    1
    32     4     7    1
    33     7     8    1
    34    25    39    1
    35    39    40   ar
    36    39    41   ar
    37    34    35   ar
    38    35    36   ar
    39    36    26   ar
    40    35    29   ar
    41     6     1    1
    42     8     1    1
    43    17    12   ar
    44    22    15    1
    45     9    10    1
    46    18    23    1
@<TRIPOS>MOLECULE
*****
 41 46 0 0 0
SMALL
GASTEIGER

@<TRIPOS>ATOM
      1 C         142.2846  142.1983  165.7508 C.3     1  UNL1        0.0936
      2 C         142.4656  142.9985  164.4950 C.3     1  UNL1        0.0287
      3 C         141.3795  143.9237  164.0321 C.3     1  UNL1        0.0193
      4 C         140.1123  144.0488  164.8250 C.3     1  UNL1        0.0700
      5 C         139.9313  143.2487  166.0808 C.3     1  UNL1        0.0193
      6 C         141.0175  142.3234  166.5437 C.3     1  UNL1        0.0287
      7 C         140.6792  143.5288  165.1184 C.3     1  UNL1        0.1562
      8 O         141.6613  142.6922  165.5370 O.3     1  UNL1       -0.3571
      9 N         139.0262  144.9740  164.3621 N.3     1  UNL1       -0.2926
     10 H         139.4497  145.6110  163.6874 H       1  UNL1        0.1236
     11 C         137.7917  144.4178  163.7166 C.3     1  UNL1        0.1152
     12 C         137.8986  143.2657  162.7621 C.ar    1  UNL1        0.0765
     13 C         137.5350  141.8820  163.2129 C.ar    1  UNL1        0.0193
     14 C         137.6419  140.7299  162.2583 C.ar    1  UNL1        0.0411
     15 C         138.1123  140.9615  160.8529 C.ar    1  UNL1        0.1708
     16 C         138.4759  142.3451  160.4021 C.ar    1  UNL1        0.1682
     17 N         138.3690  143.4973  161.3567 N.ar    1  UNL1       -0.2304
     18 N         138.9463  142.5767  158.9967 N.am    1  UNL1       -0.2639
     19 C         139.0532  141.4246  158.0422 C.2     1  UNL1        0.2718
     20 O         139.5236  141.6562  156.6368 O.2     1  UNL1       -0.2707
     21 C         138.6896  140.0409  158.4930 C.3     1  UNL1        0.2898
     22 O         138.2192  139.8093  159.8983 O.3     1  UNL1       -0.4628
     23 H         139.1849  143.4849  158.7009 H       1  UNL1        0.1565
     24 C         143.3707  141.2731  166.2137 C.3     1  UNL1        0.0373
     25 C         143.2605  139.7993  165.9569 C.3     1  UNL1        0.0649
     26 C         139.2152  138.1497  164.8780 C.ar    1  UNL1        0.2250
     27 C         138.9562  137.6478  163.4884 C.ar    1  UNL1        0.0593
     28 C         140.0456  137.6959  162.4584 C.ar    1  UNL1        0.0254
     29 C         141.3940  138.2458  162.8180 C.ar    1  UNL1        0.0990
     30 N         142.4834  138.2939  161.7880 N.ar    1  UNL1       -0.2400
     31 C         143.8318  138.8437  162.1476 C.ar    1  UNL1        0.1281
     32 C         144.0909  139.3456  163.5373 C.ar    1  UNL1        0.1570
     33 F         145.4393  139.8955  163.8969 F       1  UNL1       -0.2028
     34 C         143.0015  139.2975  164.5673 C.ar    1  UNL1        0.0310
     35 C         141.6530  138.7476  164.2076 C.ar    1  UNL1        0.1005
     36 N         140.5636  138.6995  165.2376 N.ar    1  UNL1       -0.2104
     37 C         138.1408  139.0610  167.0609 C.3     1  UNL1        0.2542
     38 O         138.1258  138.1016  165.9080 O.3     1  UNL1       -0.4561
     39 C         143.4094  138.8274  167.0897 C.2     1  UNL1        0.0543
     40 O         142.7666  139.1151  168.4141 O.co2   1  UNL1       -0.5488
     41 O         144.2011  137.5678  166.8980 O.co2   1  UNL1       -0.5488
@<TRIPOS>UNITY_ATOM_ATTR
40 1
charge -1
@<TRIPOS>BOND
     1    37    38    1
     2    38    26    1
     3    26    27   ar
     4    27    28   ar
     5    28    29   ar
     6    29    30   ar
     7    30    31   ar
     8    31    32   ar
     9    32    33    1
    10    32    34   ar
    11    34    25    1
    12    25    24    1
    13    24     1    1
    14     1     2    1
    15     2     3    1
    16     3     4    1
    17     4     9    1
    18     9    11    1
    19    11    12    1
    20    12    13   ar
    21    13    14   ar
    22    14    15   ar
    23    15    16   ar
    24    16    17   ar
    25    16    18    1
    26    18    19   am
    27    19    20    2
    28    19    21    1
    29    21    22    1
    30     4     5    1
    31     5     6    1
    32     4     7    1
    33     7     8    1
    34    25    39    1
    35    39    40   ar
    36    39    41   ar
    37    34    35   ar
    38    35    36   ar
    39    36    26   ar
    40    35    29   ar
    41     6     1    1
    42     8     1    1
    43    17    12   ar
    44    22    15    1
    45     9    10    1
    46    18    23    1
@<TRIPOS>MOLECULE
*****
 41 46 0 0 0
SMALL
GASTEIGER

@<TRIPOS>ATOM
      1 C         141.6312  138.3008  164.2430 C.3     1  UNL1        0.0936
      2 C         142.6184  138.7668  165.2718 C.3     1  UNL1        0.0287
      3 C         143.8677  139.4783  164.8442 C.3     1  UNL1        0.0193
      4 C         144.1299  139.7238  163.3878 C.3     1  UNL1        0.0700
      5 C         143.1427  139.2578  162.3590 C.3     1  UNL1        0.0193
      6 C         141.8933  138.5463  162.7867 C.3     1  UNL1        0.0287
      7 C         143.4313  139.3297  163.5738 C.3     1  UNL1        0.1562
      8 O         142.3016  138.6863  163.9604 O.3     1  UNL1       -0.3571
      9 N         145.3792  140.4353  162.9602 N.3     1  UNL1       -0.2926
     10 H         145.4351  140.3482  161.9454 H       1  UNL1        0.1236
     11 C         145.5613  141.8893  163.2806 C.3     1  UNL1        0.1152
     12 C         144.4096  142.8392  163.1357 C.ar    1  UNL1        0.0765
     13 C         143.8854  143.5710  164.3357 C.ar    1  UNL1        0.0193
     14 C         142.7336  144.5209  164.1908 C.ar    1  UNL1        0.0411
     15 C         142.1059  144.7390  162.8460 C.ar    1  UNL1        0.1708
     16 C         142.6300  144.0073  161.6461 C.ar    1  UNL1        0.1682
     17 N         143.7819  143.0574  161.7910 N.ar    1  UNL1       -0.2304
     18 N         142.0023  144.2255  160.3014 N.am    1  UNL1       -0.2639
     19 C         140.8505  145.1754  160.1565 C.2     1  UNL1        0.2718
     20 O         140.2229  145.3935  158.8117 O.2     1  UNL1       -0.2707
     21 C         140.3264  145.9072  161.3564 C.3     1  UNL1        0.2898
     22 O         140.9540  145.6890  162.7012 O.3     1  UNL1       -0.4628
     23 H         142.3463  143.7452  159.5138 H       1  UNL1        0.1565
     24 C         140.3818  137.5893  164.6706 C.3     1  UNL1        0.0373
     25 C         139.1702  138.3771  165.0724 C.3     1  UNL1        0.0649
     26 C         140.2465  142.4059  166.7637 C.ar    1  UNL1        0.2250
     27 C         139.8822  143.6545  166.0167 C.ar    1  UNL1        0.0593
     28 C         139.1591  143.5603  164.7059 C.ar    1  UNL1        0.0254
     29 C         138.8003  142.2174  164.1421 C.ar    1  UNL1        0.0990
     30 N         138.0772  142.1232  162.8313 N.ar    1  UNL1       -0.2400
     31 C         137.7184  140.7803  162.2675 C.ar    1  UNL1        0.1281
     32 C         138.0828  139.5315  163.0145 C.ar    1  UNL1        0.1570
     33 F         137.7240  138.1886  162.4507 F       1  UNL1       -0.2028
     34 C         138.8058  139.6258  164.3253 C.ar    1  UNL1        0.0310
     35 C         139.1646  140.9688  164.8891 C.ar    1  UNL1        0.1005
     36 N         139.8877  141.0630  166.1999 N.ar    1  UNL1       -0.2104
     37 C         140.3927  143.3174  169.1922 C.3     1  UNL1        0.2542
     38 O         140.9696  142.5001  168.0745 O.3     1  UNL1       -0.4561
     39 C         138.3229  137.9162  166.2212 C.2     1  UNL1        0.0543
     40 O         138.0909  138.8231  167.3932 O.co2   1  UNL1       -0.5488
     41 O         137.7076  136.5484  166.1979 O.co2   1  UNL1       -0.5488
@<TRIPOS>UNITY_ATOM_ATTR
40 1
charge -1
@<TRIPOS>BOND
     1    37    38    1
     2    38    26    1
     3    26    27   ar
     4    27    28   ar
     5    28    29   ar
     6    29    30   ar
     7    30    31   ar
     8    31    32   ar
     9    32    33    1
    10    32    34   ar
    11    34    25    1
    12    25    24    1
    13    24     1    1
    14     1     2    1
    15     2     3    1
    16     3     4    1
    17     4     9    1
    18     9    11    1
    19    11    12    1
    20    12    13   ar
    21    13    14   ar
    22    14    15   ar
    23    15    16   ar
    24    16    17   ar
    25    16    18    1
    26    18    19   am
    27    19    20    2
    28    19    21    1
    29    21    22    1
    30     4     5    1
    31     5     6    1
    32     4     7    1
    33     7     8    1
    34    25    39    1
    35    39    40   ar
    36    39    41   ar
    37    34    35   ar
    38    35    36   ar
    39    36    26   ar
    40    35    29   ar
    41     6     1    1
    42     8     1    1
    43    17    12   ar
    44    22    15    1
    45     9    10    1
    46    18    23    1
@<TRIPOS>MOLECULE
*****
 41 46 0 0 0
SMALL
GASTEIGER

@<TRIPOS>ATOM
      1 C         140.0679  137.7973  164.1988 C.3     1  UNL1        0.0936
      2 C         139.8293  137.8859  162.7206 C.3     1  UNL1        0.0287
      3 C         140.9924  137.9372  161.7748 C.3     1  UNL1        0.0193
      4 C         142.3942  137.9000  162.3073 C.3     1  UNL1        0.0700
      5 C         142.6329  137.8114  163.7855 C.3     1  UNL1        0.0193
      6 C         141.4697  137.7601  164.7313 C.3     1  UNL1        0.0287
      7 C         141.7888  137.8694  162.8645 C.3     1  UNL1        0.1562
      8 O         140.7371  137.8230  163.7197 O.3     1  UNL1       -0.3571
      9 N         143.5573  137.9513  161.3615 N.3     1  UNL1       -0.2926
     10 H         143.3228  137.3478  160.5733 H       1  UNL1        0.1236
     11 C         143.9983  139.2642  160.7855 C.3     1  UNL1        0.1152
     12 C         143.8705  140.5197  161.5963 C.ar    1  UNL1        0.0765
     13 C         144.8141  140.7774  162.7335 C.ar    1  UNL1        0.0193
     14 C         144.6863  142.0329  163.5443 C.ar    1  UNL1        0.0411
     15 C         143.6150  143.0307  163.2179 C.ar    1  UNL1        0.1708
     16 C         142.6714  142.7730  162.0807 C.ar    1  UNL1        0.1682
     17 N         142.7992  141.5175  161.2698 N.ar    1  UNL1       -0.2304
     18 N         141.6001  143.7709  161.7542 N.am    1  UNL1       -0.2639
     19 C         141.4723  145.0264  162.5650 C.2     1  UNL1        0.2718
     20 O         140.4010  146.0242  162.2386 O.2     1  UNL1       -0.2707
     21 C         142.4159  145.2841  163.7023 C.3     1  UNL1        0.2898
     22 O         143.4872  144.2862  164.0287 O.3     1  UNL1       -0.4628
     23 H         140.9808  143.6018  161.0078 H       1  UNL1        0.1565
     24 C         138.9048  137.7460  165.1446 C.3     1  UNL1        0.0373
     25 C         138.6514  138.8874  166.0844 C.3     1  UNL1        0.0649
     26 C         142.3884  140.4288  168.0614 C.ar    1  UNL1        0.2250
     27 C         142.9005  141.7996  167.7318 C.ar    1  UNL1        0.0593
     28 C         142.1669  142.6566  166.7432 C.ar    1  UNL1        0.0254
     29 C         140.9213  142.1428  166.0841 C.ar    1  UNL1        0.0990
     30 N         140.1877  142.9998  165.0955 N.ar    1  UNL1       -0.2400
     31 C         138.9420  142.4860  164.4365 C.ar    1  UNL1        0.1281
     32 C         138.4299  141.1152  164.7661 C.ar    1  UNL1        0.1570
     33 F         137.1842  140.6014  164.1071 F       1  UNL1       -0.2028
     34 C         139.1635  140.2582  165.7547 C.ar    1  UNL1        0.0310
     35 C         140.4092  140.7720  166.4138 C.ar    1  UNL1        0.1005
     36 N         141.1427  139.9150  167.4024 N.ar    1  UNL1       -0.2104
     37 C         142.3650  138.8565  170.1295 C.3     1  UNL1        0.2542
     38 O         143.1220  139.5718  169.0501 O.3     1  UNL1       -0.4561
     39 C         137.8858  138.6579  167.3537 C.2     1  UNL1        0.0543
     40 O         136.7602  137.6670  167.3819 O.co2   1  UNL1       -0.5488
     41 O         138.2460  139.4195  168.5949 O.co2   1  UNL1       -0.5488
@<TRIPOS>UNITY_ATOM_ATTR
40 1
charge -1
@<TRIPOS>BOND
     1    37    38    1
     2    38    26    1
     3    26    27   ar
     4    27    28   ar
     5    28    29   ar
     6    29    30   ar
     7    30    31   ar
     8    31    32   ar
     9    32    33    1
    10    32    34   ar
    11    34    25    1
    12    25    24    1
    13    24     1    1
    14     1     2    1
    15     2     3    1
    16     3     4    1
    17     4     9    1
    18     9    11    1
    19    11    12    1
    20    12    13   ar
    21    13    14   ar
    22    14    15   ar
    23    15    16   ar
    24    16    17   ar
    25    16    18    1
    26    18    19   am
    27    19    20    2
    28    19    21    1
    29    21    22    1
    30     4     5    1
    31     5     6    1
    32     4     7    1
    33     7     8    1
    34    25    39    1
    35    39    40   ar
    36    39    41   ar
    37    34    35   ar
    38    35    36   ar
    39    36    26   ar
    40    35    29   ar
    41     6     1    1
    42     8     1    1
    43    17    12   ar
    44    22    15    1
    45     9    10    1
    46    18    23    1
@<TRIPOS>MOLECULE
*****
 41 46 0 0 0
SMALL
GASTEIGER

@<TRIPOS>ATOM
      1 C         141.2589  138.2598  164.5858 C.3     1  UNL1        0.0936
      2 C         141.4091  137.8654  163.1464 C.3     1  UNL1        0.0287
      3 C         140.2184  137.8877  162.2344 C.3     1  UNL1        0.0193
      4 C         138.8774  138.3045  162.7618 C.3     1  UNL1        0.0700
      5 C         138.7272  138.6989  164.2012 C.3     1  UNL1        0.0193
      6 C         139.9180  138.6765  165.1132 C.3     1  UNL1        0.0287
      7 C         139.5008  138.3080  163.2996 C.3     1  UNL1        0.1562
      8 O         140.5775  138.2878  164.1243 O.3     1  UNL1       -0.3571
      9 N         137.6868  138.3269  161.8498 N.3     1  UNL1       -0.2926
     10 H         136.8639  138.4362  162.4425 H       1  UNL1        0.1236
     11 C         137.5860  139.3665  160.7732 C.3     1  UNL1        0.1152
     12 C         137.9896  140.7828  161.0582 C.ar    1  UNL1        0.0765
     13 C         137.4117  141.5041  162.2396 C.ar    1  UNL1        0.0193
     14 C         137.8153  142.9204  162.5246 C.ar    1  UNL1        0.0411
     15 C         138.7968  143.6154  161.6281 C.ar    1  UNL1        0.1708
     16 C         139.3747  142.8942  160.4467 C.ar    1  UNL1        0.1682
     17 N         138.9711  141.4778  160.1617 N.ar    1  UNL1       -0.2304
     18 N         140.3561  143.5892  159.5502 N.am    1  UNL1       -0.2639
     19 C         140.7597  145.0055  159.8351 C.2     1  UNL1        0.2718
     20 O         141.7412  145.7005  158.9386 O.2     1  UNL1       -0.2707
     21 C         140.1818  145.7268  161.0166 C.3     1  UNL1        0.2898
     22 O         139.2004  145.0318  161.9131 O.3     1  UNL1       -0.4628
     23 H         140.7354  143.1158  158.7748 H       1  UNL1        0.1565
     24 C         142.4495  138.2374  165.4977 C.3     1  UNL1        0.0373
     25 C         143.0051  139.5220  166.0375 C.3     1  UNL1        0.0649
     26 C         140.7980  143.3351  165.1219 C.ar    1  UNL1        0.2250
     27 C         141.3986  144.3436  164.1880 C.ar    1  UNL1        0.0593
     28 C         142.7349  144.0810  163.5592 C.ar    1  UNL1        0.0254
     29 C         143.4706  142.8100  163.8644 C.ar    1  UNL1        0.0990
     30 N         144.8069  142.5474  163.2356 N.ar    1  UNL1       -0.2400
     31 C         145.5426  141.2764  163.5408 C.ar    1  UNL1        0.1281
     32 C         144.9420  140.2678  164.4748 C.ar    1  UNL1        0.1570
     33 F         145.6777  138.9968  164.7800 F       1  UNL1       -0.2028
     34 C         143.6057  140.5304  165.1035 C.ar    1  UNL1        0.0310
     35 C         142.8700  141.8015  164.7983 C.ar    1  UNL1        0.1005
     36 N         141.5337  142.0641  165.4271 N.ar    1  UNL1       -0.2104
     37 C         138.7521  144.8934  165.4907 C.3     1  UNL1        0.2542
     38 O         139.4617  143.5977  165.7507 O.3     1  UNL1       -0.4561
     39 C         142.9601  139.7980  167.5112 C.2     1  UNL1        0.0543
     40 O         143.1010  138.6703  168.4901 O.co2   1  UNL1       -0.5488
     41 O         142.7741  141.2019  168.0059 O.co2   1  UNL1       -0.5488
@<TRIPOS>UNITY_ATOM_ATTR
40 1
charge -1
@<TRIPOS>BOND
     1    37    38    1
     2    38    26    1
     3    26    27   ar
     4    27    28   ar
     5    28    29   ar
     6    29    30   ar
     7    30    31   ar
     8    31    32   ar
     9    32    33    1
    10    32    34   ar
    11    34    25    1
    12    25    24    1
    13    24     1    1
    14     1     2    1
    15     2     3    1
    16     3     4    1
    17     4     9    1
    18     9    11    1
    19    11    12    1
    20    12    13   ar
    21    13    14   ar
    22    14    15   ar
    23    15    16   ar
    24    16    17   ar
    25    16    18    1
    26    18    19   am
    27    19    20    2
    28    19    21    1
    29    21    22    1
    30     4     5    1
    31     5     6    1
    32     4     7    1
    33     7     8    1
    34    25    39    1
    35    39    40   ar
    36    39    41   ar
    37    34    35   ar
    38    35    36   ar
    39    36    26   ar
    40    35    29   ar
    41     6     1    1
    42     8     1    1
    43    17    12   ar
    44    22    15    1
    45     9    10    1
    46    18    23    1
@<TRIPOS>MOLECULE
*****
 41 46 0 0 0
SMALL
GASTEIGER

@<TRIPOS>ATOM
      1 C         141.6548  142.3393  166.1709 C.3     1  UNL1        0.0936
      2 C         140.3800  142.8987  166.7293 C.3     1  UNL1        0.0287
      3 C         139.5528  143.8437  165.9090 C.3     1  UNL1        0.0193
      4 C         140.0006  144.2292  164.5302 C.3     1  UNL1        0.0700
      5 C         141.2754  143.6698  163.9718 C.3     1  UNL1        0.0193
      6 C         142.1025  142.7248  164.7922 C.3     1  UNL1        0.0287
      7 C         140.4872  143.7081  164.9421 C.3     1  UNL1        0.1562
      8 O         141.2351  142.8537  165.6838 O.3     1  UNL1       -0.3571
      9 N         139.1734  145.1742  163.7100 N.3     1  UNL1       -0.2926
     10 H         139.8079  145.6241  163.0501 H       1  UNL1        0.1236
     11 C         138.0139  144.6566  162.9114 C.3     1  UNL1        0.1152
     12 C         138.1267  143.3481  162.1869 C.ar    1  UNL1        0.0765
     13 C         137.5994  142.0935  162.8180 C.ar    1  UNL1        0.0193
     14 C         137.7122  140.7850  162.0935 C.ar    1  UNL1        0.0411
     15 C         138.3522  140.7309  160.7380 C.ar    1  UNL1        0.1708
     16 C         138.8795  141.9854  160.1069 C.ar    1  UNL1        0.1682
     17 N         138.7667  143.2940  160.8314 N.ar    1  UNL1       -0.2304
     18 N         139.5195  141.9313  158.7514 N.am    1  UNL1       -0.2639
     19 C         139.6323  140.6227  158.0269 C.2     1  UNL1        0.2718
     20 O         140.2723  140.5687  156.6714 O.2     1  UNL1       -0.2707
     21 C         139.1050  139.3682  158.6579 C.3     1  UNL1        0.2898
     22 O         138.4650  139.4222  160.0135 O.3     1  UNL1       -0.4628
     23 H         139.8656  142.7547  158.3373 H       1  UNL1        0.1565
     24 C         142.4819  141.3943  166.9911 C.3     1  UNL1        0.0373
     25 C         142.1168  139.9409  167.0565 C.3     1  UNL1        0.0649
     26 C         142.5341  138.3009  162.8868 C.ar    1  UNL1        0.2250
     27 C         141.3257  137.7976  162.1545 C.ar    1  UNL1        0.0593
     28 C         139.9782  137.8408  162.8120 C.ar    1  UNL1        0.0254
     29 C         139.8391  138.3874  164.2019 C.ar    1  UNL1        0.0990
     30 N         138.4916  138.4307  164.8594 N.ar    1  UNL1       -0.2400
     31 C         138.3524  138.9773  166.2493 C.ar    1  UNL1        0.1281
     32 C         139.5609  139.4807  166.9817 C.ar    1  UNL1        0.1570
     33 F         139.4218  140.0274  168.3716 F       1  UNL1       -0.2028
     34 C         140.9084  139.4375  166.3242 C.ar    1  UNL1        0.0310
     35 C         141.0475  138.8908  164.9342 C.ar    1  UNL1        0.1005
     36 N         142.3950  138.8476  164.2766 N.ar    1  UNL1       -0.2104
     37 C         144.0873  138.9148  160.8967 C.3     1  UNL1        0.2542
     38 O         143.8816  138.2577  162.2292 O.3     1  UNL1       -0.4561
     39 C         142.9601  138.9909  167.8542 C.2     1  UNL1        0.0543
     40 O         143.9107  138.0642  167.1559 O.co2   1  UNL1       -0.5488
     41 O         142.8528  138.9675  169.3502 O.co2   1  UNL1       -0.5488
@<TRIPOS>UNITY_ATOM_ATTR
40 1
charge -1
@<TRIPOS>BOND
     1    37    38    1
     2    38    26    1
     3    26    27   ar
     4    27    28   ar
     5    28    29   ar
     6    29    30   ar
     7    30    31   ar
     8    31    32   ar
     9    32    33    1
    10    32    34   ar
    11    34    25    1
    12    25    24    1
    13    24     1    1
    14     1     2    1
    15     2     3    1
    16     3     4    1
    17     4     9    1
    18     9    11    1
    19    11    12    1
    20    12    13   ar
    21    13    14   ar
    22    14    15   ar
    23    15    16   ar
    24    16    17   ar
    25    16    18    1
    26    18    19   am
    27    19    20    2
    28    19    21    1
    29    21    22    1
    30     4     5    1
    31     5     6    1
    32     4     7    1
    33     7     8    1
    34    25    39    1
    35    39    40   ar
    36    39    41   ar
    37    34    35   ar
    38    35    36   ar
    39    36    26   ar
    40    35    29   ar
    41     6     1    1
    42     8     1    1
    43    17    12   ar
    44    22    15    1
    45     9    10    1
    46    18    23    1
@<TRIPOS>MOLECULE
*****
 41 46 0 0 0
SMALL
GASTEIGER

@<TRIPOS>ATOM
      1 C         137.9018  141.2480  164.0057 C.3     1  UNL1        0.0936
      2 C         137.9337  141.4252  162.5165 C.3     1  UNL1        0.0287
      3 C         138.1495  142.7879  161.9279 C.3     1  UNL1        0.0193
      4 C         138.3334  143.9734  162.8284 C.3     1  UNL1        0.0700
      5 C         138.3015  143.7962  164.3175 C.3     1  UNL1        0.0193
      6 C         138.0857  142.4334  164.9062 C.3     1  UNL1        0.0287
      7 C         138.2181  143.2464  163.1973 C.3     1  UNL1        0.1562
      8 O         138.0230  142.0142  163.7296 O.3     1  UNL1       -0.3571
      9 N         138.5492  145.3360  162.2397 N.3     1  UNL1       -0.2926
     10 H         138.1745  146.0086  162.9088 H       1  UNL1        0.1236
     11 C         139.9358  145.7936  161.8962 C.3     1  UNL1        0.1152
     12 C         141.1205  144.9704  162.3067 C.ar    1  UNL1        0.0765
     13 C         141.9552  145.3903  163.4803 C.ar    1  UNL1        0.0193
     14 C         143.1399  144.5671  163.8909 C.ar    1  UNL1        0.0411
     15 C         143.4901  143.3240  163.1280 C.ar    1  UNL1        0.1708
     16 C         142.6556  142.9041  161.9545 C.ar    1  UNL1        0.1682
     17 N         141.4708  143.7273  161.5438 N.ar    1  UNL1       -0.2304
     18 N         143.0058  141.6610  161.1915 N.am    1  UNL1       -0.2639
     19 C         144.1906  140.8378  161.6021 C.2     1  UNL1        0.2718
     20 O         144.5408  139.5947  160.8392 O.2     1  UNL1       -0.2707
     21 C         145.0252  141.2577  162.7757 C.3     1  UNL1        0.2898
     22 O         144.6750  142.5008  163.5386 O.3     1  UNL1       -0.4628
     23 H         142.4580  141.3854  160.4213 H       1  UNL1        0.1565
     24 C         137.6860  139.8854  164.5944 C.3     1  UNL1        0.0373
     25 C         138.6264  139.3623  165.6394 C.3     1  UNL1        0.0649
     26 C         141.1650  142.3811  167.8055 C.ar    1  UNL1        0.2250
     27 C         142.6458  142.4227  167.5703 C.ar    1  UNL1        0.0593
     28 C         143.2805  141.4579  166.6129 C.ar    1  UNL1        0.0254
     29 C         142.4343  140.4517  165.8909 C.ar    1  UNL1        0.0990
     30 N         143.0690  139.4869  164.9336 N.ar    1  UNL1       -0.2400
     31 C         142.2228  138.4806  164.2115 C.ar    1  UNL1        0.1281
     32 C         140.7419  138.4391  164.4468 C.ar    1  UNL1        0.1570
     33 F         139.8958  137.4328  163.7247 F       1  UNL1       -0.2028
     34 C         140.1073  139.4038  165.4041 C.ar    1  UNL1        0.0310
     35 C         140.9535  140.4101  166.1262 C.ar    1  UNL1        0.1005
     36 N         140.3188  141.3749  167.0835 N.ar    1  UNL1       -0.2104
     37 C         140.0415  142.8662  170.0974 C.3     1  UNL1        0.2542
     38 O         140.5303  143.3459  168.7629 O.3     1  UNL1       -0.4561
     39 C         138.0860  138.7977  166.9197 C.2     1  UNL1        0.0543
     40 O         138.5474  139.3488  168.2362 O.co2   1  UNL1       -0.5488
     41 O         137.0841  137.6819  166.8834 O.co2   1  UNL1       -0.5488
@<TRIPOS>UNITY_ATOM_ATTR
40 1
charge -1
@<TRIPOS>BOND
     1    37    38    1
     2    38    26    1
     3    26    27   ar
     4    27    28   ar
     5    28    29   ar
     6    29    30   ar
     7    30    31   ar
     8    31    32   ar
     9    32    33    1
    10    32    34   ar
    11    34    25    1
    12    25    24    1
    13    24     1    1
    14     1     2    1
    15     2     3    1
    16     3     4    1
    17     4     9    1
    18     9    11    1
    19    11    12    1
    20    12    13   ar
    21    13    14   ar
    22    14    15   ar
    23    15    16   ar
    24    16    17   ar
    25    16    18    1
    26    18    19   am
    27    19    20    2
    28    19    21    1
    29    21    22    1
    30     4     5    1
    31     5     6    1
    32     4     7    1
    33     7     8    1
    34    25    39    1
    35    39    40   ar
    36    39    41   ar
    37    34    35   ar
    38    35    36   ar
    39    36    26   ar
    40    35    29   ar
    41     6     1    1
    42     8     1    1
    43    17    12   ar
    44    22    15    1
    45     9    10    1
    46    18    23    1
@<TRIPOS>MOLECULE
*****
 41 46 0 0 0
SMALL
GASTEIGER

@<TRIPOS>ATOM
      1 C         141.5318  140.1532  166.1367 C.3     1  UNL1        0.0936
      2 C         141.7607  141.5646  165.6835 C.3     1  UNL1        0.0287
      3 C         142.8602  141.8707  164.7101 C.3     1  UNL1        0.0193
      4 C         143.7307  140.7654  164.1900 C.3     1  UNL1        0.0700
      5 C         143.5017  139.3539  164.6432 C.3     1  UNL1        0.0193
      6 C         142.4022  139.0479  165.6166 C.3     1  UNL1        0.0287
      7 C         143.1408  140.5488  164.7220 C.3     1  UNL1        0.1562
      8 O         142.1466  140.2720  165.6021 O.3     1  UNL1       -0.3571
      9 N         144.8302  141.0715  163.2166 N.3     1  UNL1       -0.2926
     10 H         145.6000  140.4385  163.4334 H       1  UNL1        0.1236
     11 C         144.5792  140.9591  161.7420 C.3     1  UNL1        0.1152
     12 C         143.3489  141.5721  161.1418 C.ar    1  UNL1        0.0765
     13 C         143.1619  143.0602  161.1704 C.ar    1  UNL1        0.0193
     14 C         141.9316  143.6732  160.5701 C.ar    1  UNL1        0.0411
     15 C         140.8881  142.7983  159.9412 C.ar    1  UNL1        0.1708
     16 C         141.0750  141.3103  159.9125 C.ar    1  UNL1        0.1682
     17 N         142.3054  140.6972  160.5128 N.ar    1  UNL1       -0.2304
     18 N         140.0315  140.4353  159.2836 N.am    1  UNL1       -0.2639
     19 C         138.8011  141.0483  158.6833 C.2     1  UNL1        0.2718
     20 O         137.7577  140.1733  158.0543 O.2     1  UNL1       -0.2707
     21 C         138.6142  142.5364  158.7119 C.3     1  UNL1        0.2898
     22 O         139.6577  143.4114  159.3409 O.3     1  UNL1       -0.4628
     23 H         140.1542  139.4586  159.2647 H       1  UNL1        0.1565
     24 C         140.4323  139.8470  167.1101 C.3     1  UNL1        0.0373
     25 C         139.1185  139.3183  166.6156 C.3     1  UNL1        0.0649
     26 C         137.8120  142.8874  164.2064 C.ar    1  UNL1        0.2250
     27 C         137.5660  142.7485  162.7333 C.ar    1  UNL1        0.0593
     28 C         137.7555  141.4200  162.0632 C.ar    1  UNL1        0.0254
     29 C         138.1910  140.2303  162.8662 C.ar    1  UNL1        0.0990
     30 N         138.3805  138.9017  162.1962 N.ar    1  UNL1       -0.2400
     31 C         138.8160  137.7120  162.9992 C.ar    1  UNL1        0.1281
     32 C         139.0620  137.8509  164.4724 C.ar    1  UNL1        0.1570
     33 F         139.4975  136.6612  165.2754 F       1  UNL1       -0.2028
     34 C         138.8725  139.1794  165.1425 C.ar    1  UNL1        0.0310
     35 C         138.4370  140.3691  164.3394 C.ar    1  UNL1        0.1005
     36 N         138.2475  141.6977  165.0095 N.ar    1  UNL1       -0.2104
     37 C         138.8025  144.9396  165.4544 C.3     1  UNL1        0.2542
     38 O         137.6225  144.2160  164.8765 O.3     1  UNL1       -0.4561
     39 C         138.0508  138.9284  167.5944 C.2     1  UNL1        0.0543
     40 O         138.1108  139.4268  169.0078 O.co2   1  UNL1       -0.5488
     41 O         136.9229  138.0401  167.1595 O.co2   1  UNL1       -0.5488
@<TRIPOS>UNITY_ATOM_ATTR
40 1
charge -1
@<TRIPOS>BOND
     1    37    38    1
     2    38    26    1
     3    26    27   ar
     4    27    28   ar
     5    28    29   ar
     6    29    30   ar
     7    30    31   ar
     8    31    32   ar
     9    32    33    1
    10    32    34   ar
    11    34    25    1
    12    25    24    1
    13    24     1    1
    14     1     2    1
    15     2     3    1
    16     3     4    1
    17     4     9    1
    18     9    11    1
    19    11    12    1
    20    12    13   ar
    21    13    14   ar
    22    14    15   ar
    23    15    16   ar
    24    16    17   ar
    25    16    18    1
    26    18    19   am
    27    19    20    2
    28    19    21    1
    29    21    22    1
    30     4     5    1
    31     5     6    1
    32     4     7    1
    33     7     8    1
    34    25    39    1
    35    39    40   ar
    36    39    41   ar
    37    34    35   ar
    38    35    36   ar
    39    36    26   ar
    40    35    29   ar
    41     6     1    1
    42     8     1    1
    43    17    12   ar
    44    22    15    1
    45     9    10    1
    46    18    23    1
@<TRIPOS>MOLECULE
*****
 41 46 0 0 0
SMALL
GASTEIGER

@<TRIPOS>ATOM
      1 C         141.9839  140.4272  165.9554 C.3     1  UNL1        0.0936
      2 C         142.9855  139.4647  165.3895 C.3     1  UNL1        0.0287
      3 C         144.0160  139.9439  164.4105 C.3     1  UNL1        0.0193
      4 C         144.0448  141.3857  163.9974 C.3     1  UNL1        0.0700
      5 C         143.0431  142.3481  164.5633 C.3     1  UNL1        0.0193
      6 C         142.0126  141.8689  165.5424 C.3     1  UNL1        0.0287
      7 C         143.4613  141.1698  164.5367 C.3     1  UNL1        0.1562
      8 O         142.5295  140.7365  165.4220 O.3     1  UNL1       -0.3571
      9 N         145.0752  141.8649  163.0184 N.3     1  UNL1       -0.2926
     10 H         145.8475  141.1995  163.0545 H       1  UNL1        0.1236
     11 C         144.7150  142.0320  161.5719 C.3     1  UNL1        0.1152
     12 C         143.8066  141.0415  160.9059 C.ar    1  UNL1        0.0765
     13 C         144.2761  139.6374  160.6645 C.ar    1  UNL1        0.0193
     14 C         143.3677  138.6469  159.9985 C.ar    1  UNL1        0.0411
     15 C         141.9897  139.0604  159.5739 C.ar    1  UNL1        0.1708
     16 C         141.5202  140.4644  159.8153 C.ar    1  UNL1        0.1682
     17 N         142.4286  141.4550  160.4813 N.ar    1  UNL1       -0.2304
     18 N         140.1422  140.8778  159.3907 N.am    1  UNL1       -0.2639
     19 C         139.2338  139.8873  158.7247 C.2     1  UNL1        0.2718
     20 O         137.8559  140.3008  158.3001 O.2     1  UNL1       -0.2707
     21 C         139.7033  138.4832  158.4832 C.3     1  UNL1        0.2898
     22 O         141.0813  138.0698  158.9079 O.3     1  UNL1       -0.4628
     23 H         139.8341  141.7993  159.5491 H       1  UNL1        0.1565
     24 C         140.9534  139.9480  166.9345 C.3     1  UNL1        0.0373
     25 C         139.6037  139.5097  166.4484 C.3     1  UNL1        0.0649
     26 C         137.8700  142.9720  164.1556 C.ar    1  UNL1        0.2250
     27 C         137.6087  142.8416  162.6844 C.ar    1  UNL1        0.0593
     28 C         137.9252  141.5571  161.9774 C.ar    1  UNL1        0.0254
     29 C         138.5031  140.4030  162.7416 C.ar    1  UNL1        0.0990
     30 N         138.8196  139.1185  162.0346 N.ar    1  UNL1       -0.2400
     31 C         139.3974  137.9644  162.7988 C.ar    1  UNL1        0.1281
     32 C         139.6588  138.0948  164.2701 C.ar    1  UNL1        0.1570
     33 F         140.2367  136.9407  165.0343 F       1  UNL1       -0.2028
     34 C         139.3423  139.3793  164.9771 C.ar    1  UNL1        0.0310
     35 C         138.7644  140.5334  164.2128 C.ar    1  UNL1        0.1005
     36 N         138.4479  141.8179  164.9199 N.ar    1  UNL1       -0.2104
     37 C         138.6323  144.9915  165.6014 C.3     1  UNL1        0.2542
     38 O         137.5535  144.2565  164.8627 O.3     1  UNL1       -0.4561
     39 C         138.5154  139.2017  167.4337 C.2     1  UNL1        0.0543
     40 O         137.2768  138.4854  166.9835 O.co2   1  UNL1       -0.5488
     41 O         138.6657  139.6102  168.8692 O.co2   1  UNL1       -0.5488
@<TRIPOS>UNITY_ATOM_ATTR
40 1
charge -1
@<TRIPOS>BOND
     1    37    38    1
     2    38    26    1
     3    26    27   ar
     4    27    28   ar
     5    28    29   ar
     6    29    30   ar
     7    30    31   ar
     8    31    32   ar
     9    32    33    1
    10    32    34   ar
    11    34    25    1
    12    25    24    1
    13    24     1    1
    14     1     2    1
    15     2     3    1
    16     3     4    1
    17     4     9    1
    18     9    11    1
    19    11    12    1
    20    12    13   ar
    21    13    14   ar
    22    14    15   ar
    23    15    16   ar
    24    16    17   ar
    25    16    18    1
    26    18    19   am
    27    19    20    2
    28    19    21    1
    29    21    22    1
    30     4     5    1
    31     5     6    1
    32     4     7    1
    33     7     8    1
    34    25    39    1
    35    39    40   ar
    36    39    41   ar
    37    34    35   ar
    38    35    36   ar
    39    36    26   ar
    40    35    29   ar
    41     6     1    1
    42     8     1    1
    43    17    12   ar
    44    22    15    1
    45     9    10    1
    46    18    23    1
