@<TRIPOS>MOLECULE
*****
 20 21 0 0 0
SMALL
GASTEIGER

@<TRIPOS>ATOM
      1 C         138.1565  139.6379  162.5149 C.ar    1  UNL1        0.0282
      2 C         137.8970  140.6572  161.4456 C.ar    1  UNL1        0.0010
      3 C         137.7631  142.1067  161.8077 C.ar    1  UNL1        0.0113
      4 C         137.8889  142.5368  163.2392 C.ar    1  UNL1        0.0607
      5 CL        137.7550  143.9863  163.6013 Cl      1  UNL1       -0.0821
      6 C         138.1484  141.5174  164.3085 C.ar    1  UNL1        0.0486
      7 C         138.2823  140.0680  163.9463 C.ar    1  UNL1        0.1434
      8 C         138.2904  138.1884  162.1527 C.3     1  UNL1        0.0987
      9 C         140.8620  137.8268  162.2283 C.3     1  UNL1        0.0861
     10 N         139.4785  137.4040  162.6248 N.3     1  UNL1       -0.2925
     11 H         139.4495  137.4106  163.6444 H       1  UNL1        0.1236
     12 O         138.5419  139.0486  165.0158 O.3     1  UNL1       -0.4537
     13 C         139.5516  139.3282  166.0892 C.ar    1  UNL1        0.1461
     14 C         141.0160  139.1882  165.7962 C.ar    1  UNL1        0.0372
     15 C         142.0257  139.4677  166.8696 C.ar    1  UNL1       -0.0003
     16 C         141.5711  139.8874  168.2361 C.ar    1  UNL1       -0.0111
     17 C         142.5807  140.1670  169.3095 C.3     1  UNL1        0.0319
     18 C         140.1067  140.0274  168.5291 C.ar    1  UNL1        0.0567
     19 CL        139.6520  140.4471  169.8955 Cl      1  UNL1       -0.0825
     20 C         139.0969  139.7478  167.4556 C.ar    1  UNL1        0.0486
@<TRIPOS>BOND
     1     9    10    1
     2    10     8    1
     3     8     1    1
     4     1     2   ar
     5     2     3   ar
     6     3     4   ar
     7     4     5    1
     8     4     6   ar
     9     6     7   ar
    10     7    12    1
    11    12    13    1
    12    13    14   ar
    13    14    15   ar
    14    15    16   ar
    15    16    17    1
    16    16    18   ar
    17    18    19    1
    18    18    20   ar
    19     7     1   ar
    20    20    13   ar
    21    10    11    1
@<TRIPOS>MOLECULE
*****
 20 21 0 0 0
SMALL
GASTEIGER

@<TRIPOS>ATOM
      1 C         141.5629  144.1697  163.6044 C.ar    1  UNL1        0.0282
      2 C         142.8130  144.8724  163.1645 C.ar    1  UNL1        0.0010
      3 C         144.1431  144.1926  163.3010 C.ar    1  UNL1        0.0113
      4 C         144.2232  142.8101  163.8773 C.ar    1  UNL1        0.0607
      5 CL        145.5534  142.1303  164.0137 Cl      1  UNL1       -0.0821
      6 C         142.9732  142.1074  164.3172 C.ar    1  UNL1        0.0486
      7 C         141.6430  142.7872  164.1808 C.ar    1  UNL1        0.1434
      8 C         140.2328  144.8495  163.4680 C.3     1  UNL1        0.0987
      9 C         138.0153  144.4283  164.7545 C.3     1  UNL1        0.0861
     10 N         139.3721  145.0632  164.6777 N.3     1  UNL1       -0.2925
     11 H         139.9022  144.7229  165.4800 H       1  UNL1        0.1236
     12 O         140.3930  142.0844  164.6207 O.3     1  UNL1       -0.4537
     13 C         140.2134  141.7043  166.0605 C.ar    1  UNL1        0.1461
     14 C         139.7005  140.3407  166.4179 C.ar    1  UNL1        0.0372
     15 C         139.5210  139.9605  167.8578 C.ar    1  UNL1       -0.0003
     16 C         139.8543  140.9439  168.9403 C.ar    1  UNL1       -0.0111
     17 C         139.6748  140.5638  170.3802 C.3     1  UNL1        0.0319
     18 C         140.3672  142.3074  168.5830 C.ar    1  UNL1        0.0567
     19 CL        140.7006  143.2908  169.6655 Cl      1  UNL1       -0.0825
     20 C         140.5468  142.6876  167.1431 C.ar    1  UNL1        0.0486
@<TRIPOS>BOND
     1     9    10    1
     2    10     8    1
     3     8     1    1
     4     1     2   ar
     5     2     3   ar
     6     3     4   ar
     7     4     5    1
     8     4     6   ar
     9     6     7   ar
    10     7    12    1
    11    12    13    1
    12    13    14   ar
    13    14    15   ar
    14    15    16   ar
    15    16    17    1
    16    16    18   ar
    17    18    19    1
    18    18    20   ar
    19     7     1   ar
    20    20    13   ar
    21    10    11    1
@<TRIPOS>MOLECULE
*****
 20 21 0 0 0
SMALL
GASTEIGER

@<TRIPOS>ATOM
      1 C         139.3175  143.8014  164.1283 C.ar    1  UNL1        0.0282
      2 C         139.6087  145.0833  163.4058 C.ar    1  UNL1        0.0010
      3 C         141.0269  145.4717  163.1094 C.ar    1  UNL1        0.0113
      4 C         142.1539  144.5782  163.5355 C.ar    1  UNL1        0.0607
      5 CL        143.5721  144.9666  163.2391 Cl      1  UNL1       -0.0821
      6 C         141.8627  143.2964  164.2580 C.ar    1  UNL1        0.0486
      7 C         140.4445  142.9080  164.5544 C.ar    1  UNL1        0.1434
      8 C         137.8993  143.4130  164.4247 C.3     1  UNL1        0.0987
      9 C         137.4234  141.3261  162.9523 C.3     1  UNL1        0.0861
     10 N         137.4726  141.9804  164.3012 N.3     1  UNL1       -0.2925
     11 H         138.1159  141.4313  164.8715 H       1  UNL1        0.1236
     12 O         140.1534  141.6261  165.2770 O.3     1  UNL1       -0.4537
     13 C         140.3276  141.5474  166.7647 C.ar    1  UNL1        0.1461
     14 C         140.4686  140.2123  167.4338 C.ar    1  UNL1        0.0372
     15 C         140.6428  140.1337  168.9216 C.ar    1  UNL1       -0.0003
     16 C         140.6762  141.3901  169.7402 C.ar    1  UNL1       -0.0111
     17 C         140.8505  141.3115  171.2280 C.3     1  UNL1        0.0319
     18 C         140.5353  142.7252  169.0712 C.ar    1  UNL1        0.0567
     19 CL        140.5687  143.9816  169.8899 Cl      1  UNL1       -0.0825
     20 C         140.3610  142.8039  167.5834 C.ar    1  UNL1        0.0486
@<TRIPOS>BOND
     1     9    10    1
     2    10     8    1
     3     8     1    1
     4     1     2   ar
     5     2     3   ar
     6     3     4   ar
     7     4     5    1
     8     4     6   ar
     9     6     7   ar
    10     7    12    1
    11    12    13    1
    12    13    14   ar
    13    14    15   ar
    14    15    16   ar
    15    16    17    1
    16    16    18   ar
    17    18    19    1
    18    18    20   ar
    19     7     1   ar
    20    20    13   ar
    21    10    11    1
@<TRIPOS>MOLECULE
*****
 20 21 0 0 0
SMALL
GASTEIGER

@<TRIPOS>ATOM
      1 C         140.6060  140.4326  167.1414 C.ar    1  UNL1        0.0282
      2 C         139.7419  139.9085  168.2498 C.ar    1  UNL1        0.0010
      3 C         139.4488  140.7688  169.4431 C.ar    1  UNL1        0.0113
      4 C         140.0198  142.1532  169.5280 C.ar    1  UNL1        0.0607
      5 CL        139.7267  143.0135  170.7213 Cl      1  UNL1       -0.0821
      6 C         140.8838  142.6774  168.4196 C.ar    1  UNL1        0.0486
      7 C         141.1769  141.8171  167.2263 C.ar    1  UNL1        0.1434
      8 C         140.8991  139.5723  165.9481 C.3     1  UNL1        0.0987
      9 C         143.2963  138.6321  166.2933 C.3     1  UNL1        0.0861
     10 N         142.3114  139.4085  165.4703 N.3     1  UNL1       -0.2925
     11 H         142.2631  138.9511  164.5599 H       1  UNL1        0.1236
     12 O         142.0410  142.3413  166.1178 O.3     1  UNL1       -0.4537
     13 C         141.4614  143.2650  165.0879 C.ar    1  UNL1        0.1461
     14 C         142.3680  144.1147  164.2474 C.ar    1  UNL1        0.0372
     15 C         141.7884  145.0384  163.2175 C.ar    1  UNL1       -0.0003
     16 C         140.3022  145.1124  163.0279 C.ar    1  UNL1       -0.0111
     17 C         139.7226  146.0361  161.9980 C.3     1  UNL1        0.0319
     18 C         139.3957  144.2628  163.8683 C.ar    1  UNL1        0.0567
     19 CL        137.9096  144.3369  163.6788 Cl      1  UNL1       -0.0825
     20 C         139.9753  143.3390  164.8983 C.ar    1  UNL1        0.0486
@<TRIPOS>BOND
     1     9    10    1
     2    10     8    1
     3     8     1    1
     4     1     2   ar
     5     2     3   ar
     6     3     4   ar
     7     4     5    1
     8     4     6   ar
     9     6     7   ar
    10     7    12    1
    11    12    13    1
    12    13    14   ar
    13    14    15   ar
    14    15    16   ar
    15    16    17    1
    16    16    18   ar
    17    18    19    1
    18    18    20   ar
    19     7     1   ar
    20    20    13   ar
    21    10    11    1
@<TRIPOS>MOLECULE
*****
 20 21 0 0 0
SMALL
GASTEIGER

@<TRIPOS>ATOM
      1 C         139.4543  139.8796  167.8292 C.ar    1  UNL1        0.0282
      2 C         138.1960  139.1066  167.5663 C.ar    1  UNL1        0.0010
      3 C         138.0273  138.3659  166.2729 C.ar    1  UNL1        0.0113
      4 C         139.1168  138.3982  165.2424 C.ar    1  UNL1        0.0607
      5 CL        138.9481  137.6575  163.9490 Cl      1  UNL1       -0.0821
      6 C         140.3751  139.1711  165.5054 C.ar    1  UNL1        0.0486
      7 C         140.5439  139.9118  166.7988 C.ar    1  UNL1        0.1434
      8 C         139.6231  140.6203  169.1226 C.3     1  UNL1        0.0987
      9 C         139.9894  142.8930  170.3270 C.3     1  UNL1        0.0861
     10 N         140.1652  142.0189  169.1208 N.3     1  UNL1       -0.2925
     11 H         141.1688  141.9454  168.9540 H       1  UNL1        0.1236
     12 O         141.8022  140.6848  167.0617 O.3     1  UNL1       -0.4537
     13 C         142.2133  141.7875  166.1316 C.ar    1  UNL1        0.1461
     14 C         143.6533  141.9413  165.7408 C.ar    1  UNL1        0.0372
     15 C         144.0644  143.0440  164.8107 C.ar    1  UNL1       -0.0003
     16 C         143.0354  143.9929  164.2714 C.ar    1  UNL1       -0.0111
     17 C         143.4465  145.0955  163.3413 C.3     1  UNL1        0.0319
     18 C         141.5955  143.8391  164.6622 C.ar    1  UNL1        0.0567
     19 CL        140.5665  144.7880  164.1228 Cl      1  UNL1       -0.0825
     20 C         141.1843  142.7364  165.5923 C.ar    1  UNL1        0.0486
@<TRIPOS>BOND
     1     9    10    1
     2    10     8    1
     3     8     1    1
     4     1     2   ar
     5     2     3   ar
     6     3     4   ar
     7     4     5    1
     8     4     6   ar
     9     6     7   ar
    10     7    12    1
    11    12    13    1
    12    13    14   ar
    13    14    15   ar
    14    15    16   ar
    15    16    17    1
    16    16    18   ar
    17    18    19    1
    18    18    20   ar
    19     7     1   ar
    20    20    13   ar
    21    10    11    1
@<TRIPOS>MOLECULE
*****
 20 21 0 0 0
SMALL
GASTEIGER

@<TRIPOS>ATOM
      1 C         142.7901  144.2394  163.6838 C.ar    1  UNL1        0.0282
      2 C         144.0438  144.0597  162.8802 C.ar    1  UNL1        0.0010
      3 C         144.8339  142.7899  162.9968 C.ar    1  UNL1        0.0113
      4 C         144.3701  141.6998  163.9168 C.ar    1  UNL1        0.0607
      5 CL        145.1601  140.4301  164.0333 Cl      1  UNL1       -0.0821
      6 C         143.1163  141.8795  164.7203 C.ar    1  UNL1        0.0486
      7 C         142.3263  143.1492  164.6038 C.ar    1  UNL1        0.1434
      8 C         142.0000  145.5091  163.5673 C.3     1  UNL1        0.0987
      9 C         139.7820  145.6749  162.2246 C.3     1  UNL1        0.0861
     10 N         140.5016  145.4587  163.5229 N.3     1  UNL1       -0.2925
     11 H         140.2278  144.5362  163.8612 H       1  UNL1        0.1236
     12 O         141.0724  143.3289  165.4074 O.3     1  UNL1       -0.4537
     13 C         140.2497  142.1346  165.7906 C.ar    1  UNL1        0.1461
     14 C         139.3554  141.4836  164.7774 C.ar    1  UNL1        0.0372
     15 C         138.5326  140.2894  165.1606 C.ar    1  UNL1       -0.0003
     16 C         138.6041  139.7461  166.5570 C.ar    1  UNL1       -0.0111
     17 C         137.7814  138.5519  166.9402 C.3     1  UNL1        0.0319
     18 C         139.4984  140.3971  167.5701 C.ar    1  UNL1        0.0567
     19 CL        139.5699  139.8539  168.9664 Cl      1  UNL1       -0.0825
     20 C         140.3212  141.5914  167.1869 C.ar    1  UNL1        0.0486
@<TRIPOS>BOND
     1     9    10    1
     2    10     8    1
     3     8     1    1
     4     1     2   ar
     5     2     3   ar
     6     3     4   ar
     7     4     5    1
     8     4     6   ar
     9     6     7   ar
    10     7    12    1
    11    12    13    1
    12    13    14   ar
    13    14    15   ar
    14    15    16   ar
    15    16    17    1
    16    16    18   ar
    17    18    19    1
    18    18    20   ar
    19     7     1   ar
    20    20    13   ar
    21    10    11    1
@<TRIPOS>MOLECULE
*****
 20 21 0 0 0
SMALL
GASTEIGER

@<TRIPOS>ATOM
      1 C         142.5769  143.7512  163.6833 C.ar    1  UNL1        0.0282
      2 C         141.9312  145.0475  163.2925 C.ar    1  UNL1        0.0010
      3 C         140.5417  145.3642  163.7603 C.ar    1  UNL1        0.0113
      4 C         139.7978  144.3846  164.6188 C.ar    1  UNL1        0.0607
      5 CL        138.4082  144.7013  165.0865 Cl      1  UNL1       -0.0821
      6 C         140.4435  143.0884  165.0095 C.ar    1  UNL1        0.0486
      7 C         141.8331  142.7717  164.5418 C.ar    1  UNL1        0.1434
      8 C         143.9665  143.4345  163.2155 C.3     1  UNL1        0.0987
      9 C         145.7778  141.6235  163.6507 C.3     1  UNL1        0.0861
     10 N         144.9352  142.7626  164.1429 N.3     1  UNL1       -0.2925
     11 H         145.5776  143.4839  164.4707 H       1  UNL1        0.1236
     12 O         142.4788  141.4753  164.9326 O.3     1  UNL1       -0.4537
     13 C         142.5883  141.0984  166.3803 C.ar    1  UNL1        0.1461
     14 C         142.3004  139.6913  166.8129 C.ar    1  UNL1        0.0372
     15 C         142.4099  139.3144  168.2606 C.ar    1  UNL1       -0.0003
     16 C         142.8073  140.3446  169.2758 C.ar    1  UNL1       -0.0111
     17 C         142.9168  139.9678  170.7235 C.3     1  UNL1        0.0319
     18 C         143.0951  141.7517  168.8433 C.ar    1  UNL1        0.0567
     19 CL        143.4925  142.7820  169.8585 Cl      1  UNL1       -0.0825
     20 C         142.9857  142.1287  167.3955 C.ar    1  UNL1        0.0486
@<TRIPOS>BOND
     1     9    10    1
     2    10     8    1
     3     8     1    1
     4     1     2   ar
     5     2     3   ar
     6     3     4   ar
     7     4     5    1
     8     4     6   ar
     9     6     7   ar
    10     7    12    1
    11    12    13    1
    12    13    14   ar
    13    14    15   ar
    14    15    16   ar
    15    16    17    1
    16    16    18   ar
    17    18    19    1
    18    18    20   ar
    19     7     1   ar
    20    20    13   ar
    21    10    11    1
@<TRIPOS>MOLECULE
*****
 20 21 0 0 0
SMALL
GASTEIGER

@<TRIPOS>ATOM
      1 C         140.3801  139.1003  164.4756 C.ar    1  UNL1        0.0282
      2 C         139.7717  137.7324  164.3836 C.ar    1  UNL1        0.0010
      3 C         138.6659  137.3390  165.3176 C.ar    1  UNL1        0.0113
      4 C         138.1685  138.3135  166.3437 C.ar    1  UNL1        0.0607
      5 CL        137.0627  137.9201  167.2777 Cl      1  UNL1       -0.0821
      6 C         138.7769  139.6815  166.4357 C.ar    1  UNL1        0.0486
      7 C         139.8827  140.0749  165.5017 C.ar    1  UNL1        0.1434
      8 C         141.4859  139.4937  163.5416 C.3     1  UNL1        0.0987
      9 C         142.5664  141.7076  162.7162 C.3     1  UNL1        0.0861
     10 N         141.3929  140.7746  162.7666 N.3     1  UNL1       -0.2925
     11 H         141.1772  140.5205  161.8026 H       1  UNL1        0.1236
     12 O         140.4911  141.4429  165.5937 O.3     1  UNL1       -0.4537
     13 C         141.1355  141.8927  166.8713 C.ar    1  UNL1        0.1461
     14 C         142.5486  141.4947  167.1793 C.ar    1  UNL1        0.0372
     15 C         143.1931  141.9445  168.4569 C.ar    1  UNL1       -0.0003
     16 C         142.4245  142.7923  169.4266 C.ar    1  UNL1       -0.0111
     17 C         143.0689  143.2421  170.7042 C.3     1  UNL1        0.0319
     18 C         141.0114  143.1904  169.1187 C.ar    1  UNL1        0.0567
     19 CL        140.2428  144.0382  170.0885 Cl      1  UNL1       -0.0825
     20 C         140.3669  142.7406  167.8411 C.ar    1  UNL1        0.0486
@<TRIPOS>BOND
     1     9    10    1
     2    10     8    1
     3     8     1    1
     4     1     2   ar
     5     2     3   ar
     6     3     4   ar
     7     4     5    1
     8     4     6   ar
     9     6     7   ar
    10     7    12    1
    11    12    13    1
    12    13    14   ar
    13    14    15   ar
    14    15    16   ar
    15    16    17    1
    16    16    18   ar
    17    18    19    1
    18    18    20   ar
    19     7     1   ar
    20    20    13   ar
    21    10    11    1
@<TRIPOS>MOLECULE
*****
 20 21 0 0 0
SMALL
GASTEIGER

@<TRIPOS>ATOM
      1 C         141.3141  140.3637  166.8081 C.ar    1  UNL1        0.0282
      2 C         142.4688  140.1009  167.7287 C.ar    1  UNL1        0.0010
      3 C         142.7665  141.0527  168.8491 C.ar    1  UNL1        0.0113
      4 C         141.9094  142.2673  169.0491 C.ar    1  UNL1        0.0607
      5 CL        142.2070  143.2191  170.1696 Cl      1  UNL1       -0.0821
      6 C         140.7547  142.5302  168.1285 C.ar    1  UNL1        0.0486
      7 C         140.4571  141.5784  167.0080 C.ar    1  UNL1        0.1434
      8 C         141.0165  139.4119  165.6876 C.3     1  UNL1        0.0987
      9 C         138.9585  138.8253  164.2144 C.3     1  UNL1        0.0861
     10 N         139.6441  138.8228  165.5485 N.3     1  UNL1       -0.2925
     11 H         139.7105  137.8487  165.8437 H       1  UNL1        0.1236
     12 O         139.3023  141.8413  166.0874 O.3     1  UNL1       -0.4537
     13 C         139.4000  142.9215  165.0513 C.ar    1  UNL1        0.1461
     14 C         138.1891  143.3086  164.2549 C.ar    1  UNL1        0.0372
     15 C         138.2868  144.3888  163.2188 C.ar    1  UNL1       -0.0003
     16 C         139.5953  145.0819  162.9790 C.ar    1  UNL1       -0.0111
     17 C         139.6930  146.1621  161.9428 C.3     1  UNL1        0.0319
     18 C         140.8061  144.6948  163.7752 C.ar    1  UNL1        0.0567
     19 CL        142.1146  145.3879  163.5354 Cl      1  UNL1       -0.0825
     20 C         140.7084  143.6146  164.8114 C.ar    1  UNL1        0.0486
@<TRIPOS>BOND
     1     9    10    1
     2    10     8    1
     3     8     1    1
     4     1     2   ar
     5     2     3   ar
     6     3     4   ar
     7     4     5    1
     8     4     6   ar
     9     6     7   ar
    10     7    12    1
    11    12    13    1
    12    13    14   ar
    13    14    15   ar
    14    15    16   ar
    15    16    17    1
    16    16    18   ar
    17    18    19    1
    18    18    20   ar
    19     7     1   ar
    20    20    13   ar
    21    10    11    1
