@<TRIPOS>MOLECULE
*****
 27 29 0 0 0
SMALL
GASTEIGER

@<TRIPOS>ATOM
      1 C         142.3759  142.2272  166.8039 C.ar    1  UNL1        0.0183
      2 C         141.1433  142.3256  165.9546 C.ar    1  UNL1        0.0017
      3 C         141.2347  142.8719  164.5607 C.ar    1  UNL1        0.0046
      4 C         142.5586  143.3199  164.0159 C.ar    1  UNL1        0.0537
      5 C         143.7911  143.2215  164.8652 C.ar    1  UNL1        0.0046
      6 C         143.6997  142.6751  166.2592 C.ar    1  UNL1        0.0017
      7 C         142.5118  140.2192  168.4470 C.ar    1  UNL1        0.0861
      8 C         142.4204  139.6729  169.8410 C.ar    1  UNL1        0.0134
      9 C         142.1017  140.5882  170.9858 C.ar    1  UNL1        0.0214
     10 C         141.8743  142.0498  170.7367 C.ar    1  UNL1        0.0989
     11 N         141.9657  142.5961  169.3428 N.ar    1  UNL1       -0.2432
     12 C         142.2845  141.6808  168.1979 C.ar    1  UNL1        0.0909
     13 N         143.1493  138.3887  166.1573 N.1     1  UNL1       -0.1908
     14 C         142.8305  139.3040  167.3021 C.1     1  UNL1        0.1019
     15 C         142.6499  143.8662  162.6220 C.2     1  UNL1        0.2495
     16 O         143.7919  144.7607  162.2404 O.2     1  UNL1       -0.2698
     17 N         141.5992  143.5181  161.6096 N.am    1  UNL1       -0.2794
     18 H         140.8496  142.9311  161.8601 H       1  UNL1        0.1552
     19 C         141.6905  144.0645  160.2157 C.ar    1  UNL1        0.0636
     20 C         142.6751  143.4826  159.2451 C.ar    1  UNL1        0.0159
     21 C         142.7664  144.0291  157.8511 C.ar    1  UNL1        0.0014
     22 C         141.8732  145.1572  157.4278 C.ar    1  UNL1        0.0013
     23 C         140.8886  145.7390  158.3983 C.ar    1  UNL1        0.0153
     24 C         140.7972  145.1927  159.7923 C.ar    1  UNL1        0.0552
     25 N         139.8126  145.7745  160.7629 N.pl3   1  UNL1       -0.3560
     26 H         139.2263  146.5150  160.4850 H       1  UNL1        0.1424
     27 H         139.7527  145.4159  161.6778 H       1  UNL1        0.1424
@<TRIPOS>BOND
     1    13    14    3
     2    14     7    1
     3     7     8   ar
     4     8     9   ar
     5     9    10   ar
     6    10    11   ar
     7    11    12   ar
     8    12     1    1
     9     1     2   ar
    10     2     3   ar
    11     3     4   ar
    12     4    15    1
    13    15    16    2
    14    15    17   am
    15    17    19    1
    16    19    20   ar
    17    20    21   ar
    18    21    22   ar
    19    22    23   ar
    20    23    24   ar
    21    24    25    1
    22     4     5   ar
    23     5     6   ar
    24    12     7   ar
    25     6     1   ar
    26    24    19   ar
    27    17    18    1
    28    25    26    1
    29    25    27    1
@<TRIPOS>MOLECULE
*****
 27 29 0 0 0
SMALL
GASTEIGER

@<TRIPOS>ATOM
      1 C         141.4356  142.3927  166.9298 C.ar    1  UNL1        0.0183
      2 C         142.7806  142.1729  166.3030 C.ar    1  UNL1        0.0017
      3 C         143.0528  142.6750  164.9161 C.ar    1  UNL1        0.0046
      4 C         141.9800  143.3969  164.1557 C.ar    1  UNL1        0.0537
      5 C         140.6350  143.6167  164.7825 C.ar    1  UNL1        0.0046
      6 C         140.3629  143.1146  166.1695 C.ar    1  UNL1        0.0017
      7 C         140.3185  140.6679  168.5195 C.ar    1  UNL1        0.0861
      8 C         140.0464  140.1659  169.9065 C.ar    1  UNL1        0.0134
      9 C         140.6193  140.8865  171.0909 C.ar    1  UNL1        0.0214
     10 C         141.4642  142.1091  170.8882 C.ar    1  UNL1        0.0989
     11 N         141.7363  142.6112  169.5012 N.ar    1  UNL1       -0.2432
     12 C         141.1635  141.8906  168.3169 C.ar    1  UNL1        0.0909
     13 N         139.1728  139.2268  166.1509 N.1     1  UNL1       -0.1908
     14 C         139.7457  139.9474  167.3352 C.1     1  UNL1        0.1019
     15 C         142.2522  143.8990  162.7687 C.2     1  UNL1        0.2495
     16 O         143.4469  144.7672  162.5064 O.2     1  UNL1       -0.2698
     17 N         141.3296  143.5329  161.6441 N.am    1  UNL1       -0.2794
     18 H         140.5455  142.9631  161.8163 H       1  UNL1        0.1552
     19 C         141.6018  144.0350  160.2571 C.ar    1  UNL1        0.0636
     20 C         142.6661  143.3886  159.4208 C.ar    1  UNL1        0.0159
     21 C         142.9383  143.8907  158.0338 C.ar    1  UNL1        0.0014
     22 C         142.1461  145.0392  157.4830 C.ar    1  UNL1        0.0013
     23 C         141.0818  145.6857  158.3193 C.ar    1  UNL1        0.0153
     24 C         140.8096  145.1836  159.7063 C.ar    1  UNL1        0.0552
     25 N         139.7453  145.8300  160.5425 N.pl3   1  UNL1       -0.3560
     26 H         139.2254  146.5839  160.1811 H       1  UNL1        0.1424
     27 H         139.5667  145.5005  161.4529 H       1  UNL1        0.1424
@<TRIPOS>BOND
     1    13    14    3
     2    14     7    1
     3     7     8   ar
     4     8     9   ar
     5     9    10   ar
     6    10    11   ar
     7    11    12   ar
     8    12     1    1
     9     1     2   ar
    10     2     3   ar
    11     3     4   ar
    12     4    15    1
    13    15    16    2
    14    15    17   am
    15    17    19    1
    16    19    20   ar
    17    20    21   ar
    18    21    22   ar
    19    22    23   ar
    20    23    24   ar
    21    24    25    1
    22     4     5   ar
    23     5     6   ar
    24    12     7   ar
    25     6     1   ar
    26    24    19   ar
    27    17    18    1
    28    25    26    1
    29    25    27    1
@<TRIPOS>MOLECULE
*****
 27 29 0 0 0
SMALL
GASTEIGER

@<TRIPOS>ATOM
      1 C         142.4176  143.6334  161.7882 C.ar    1  UNL1        0.0183
      2 C         141.6323  142.4816  162.3419 C.ar    1  UNL1        0.0017
      3 C         141.7384  142.1318  163.7966 C.ar    1  UNL1        0.0046
      4 C         142.6300  142.9338  164.6977 C.ar    1  UNL1        0.0537
      5 C         143.4154  144.0856  164.1440 C.ar    1  UNL1        0.0046
      6 C         143.3092  144.4354  162.6892 C.ar    1  UNL1        0.0017
      7 C         141.2469  144.9307  159.8655 C.ar    1  UNL1        0.0861
      8 C         141.1408  145.2805  158.4108 C.ar    1  UNL1        0.0134
      9 C         142.0991  144.6826  157.4238 C.ar    1  UNL1        0.0214
     10 C         143.1636  143.7350  157.8916 C.ar    1  UNL1        0.0989
     11 N         143.2698  143.3853  159.3463 N.ar    1  UNL1       -0.2432
     12 C         142.3114  143.9832  160.3333 C.ar    1  UNL1        0.0909
     13 N         139.3302  146.1265  161.8395 N.1     1  UNL1       -0.1908
     14 C         140.2886  145.5286  160.8525 C.1     1  UNL1        0.1019
     15 C         142.7362  142.5840  166.1525 C.2     1  UNL1        0.2495
     16 O         143.9262  143.0339  166.9471 O.2     1  UNL1       -0.2698
     17 N         141.6523  141.7844  166.8126 N.am    1  UNL1       -0.2794
     18 H         140.8712  141.4891  166.2911 H       1  UNL1        0.1552
     19 C         141.7585  141.4346  168.2674 C.ar    1  UNL1        0.0636
     20 C         141.1912  142.3583  169.3042 C.ar    1  UNL1        0.0159
     21 C         141.2974  142.0084  170.7590 C.ar    1  UNL1        0.0014
     22 C         141.9708  140.7350  171.1769 C.ar    1  UNL1        0.0013
     23 C         142.5382  139.8113  170.1401 C.ar    1  UNL1        0.0153
     24 C         142.4320  140.1611  168.6854 C.ar    1  UNL1        0.0552
     25 N         142.9993  139.2375  167.6485 N.pl3   1  UNL1       -0.3560
     26 H         143.4413  138.4016  167.9229 H       1  UNL1        0.1424
     27 H         142.9296  139.4670  166.6937 H       1  UNL1        0.1424
@<TRIPOS>BOND
     1    13    14    3
     2    14     7    1
     3     7     8   ar
     4     8     9   ar
     5     9    10   ar
     6    10    11   ar
     7    11    12   ar
     8    12     1    1
     9     1     2   ar
    10     2     3   ar
    11     3     4   ar
    12     4    15    1
    13    15    16    2
    14    15    17   am
    15    17    19    1
    16    19    20   ar
    17    20    21   ar
    18    21    22   ar
    19    22    23   ar
    20    23    24   ar
    21    24    25    1
    22     4     5   ar
    23     5     6   ar
    24    12     7   ar
    25     6     1   ar
    26    24    19   ar
    27    17    18    1
    28    25    26    1
    29    25    27    1
@<TRIPOS>MOLECULE
*****
 27 29 0 0 0
SMALL
GASTEIGER

@<TRIPOS>ATOM
      1 C         140.7106  143.6077  162.5068 C.ar    1  UNL1        0.0183
      2 C         141.4646  142.8985  161.4211 C.ar    1  UNL1        0.0017
      3 C         141.6256  143.5424  160.0760 C.ar    1  UNL1        0.0046
      4 C         141.0327  144.8957  159.8165 C.ar    1  UNL1        0.0537
      5 C         140.2787  145.6049  160.9021 C.ar    1  UNL1        0.0046
      6 C         140.1177  144.9609  162.2473 C.ar    1  UNL1        0.0017
      7 C         139.3871  142.0524  164.1128 C.ar    1  UNL1        0.0861
      8 C         139.2262  141.4085  165.4580 C.ar    1  UNL1        0.0134
      9 C         140.2277  141.6758  166.5421 C.ar    1  UNL1        0.0214
     10 C         141.3902  142.5871  166.2812 C.ar    1  UNL1        0.0989
     11 N         141.5512  143.2310  164.9361 N.ar    1  UNL1       -0.2432
     12 C         140.5496  142.9637  163.8519 C.ar    1  UNL1        0.0909
     13 N         137.3841  141.5178  161.9445 N.1     1  UNL1       -0.1908
     14 C         138.3856  141.7851  163.0287 C.1     1  UNL1        0.1019
     15 C         141.1937  145.5396  158.4714 C.2     1  UNL1        0.2495
     16 O         142.5006  146.1717  158.0941 O.2     1  UNL1       -0.2698
     17 N         140.0478  145.5514  157.5035 N.am    1  UNL1       -0.2794
     18 H         139.1900  145.1365  157.7511 H       1  UNL1        0.1552
     19 C         140.2088  146.1953  156.1584 C.ar    1  UNL1        0.0636
     20 C         141.0319  145.5241  155.0992 C.ar    1  UNL1        0.0159
     21 C         141.1929  146.1681  153.7540 C.ar    1  UNL1        0.0014
     22 C         140.5308  147.4833  153.4681 C.ar    1  UNL1        0.0013
     23 C         139.7078  148.1546  154.5273 C.ar    1  UNL1        0.0153
     24 C         139.5467  147.5106  155.8724 C.ar    1  UNL1        0.0552
     25 N         138.7236  148.1819  156.9316 N.pl3   1  UNL1       -0.3560
     26 H         138.2891  149.0452  156.7439 H       1  UNL1        0.1424
     27 H         138.6180  147.7593  157.8145 H       1  UNL1        0.1424
@<TRIPOS>BOND
     1    13    14    3
     2    14     7    1
     3     7     8   ar
     4     8     9   ar
     5     9    10   ar
     6    10    11   ar
     7    11    12   ar
     8    12     1    1
     9     1     2   ar
    10     2     3   ar
    11     3     4   ar
    12     4    15    1
    13    15    16    2
    14    15    17   am
    15    17    19    1
    16    19    20   ar
    17    20    21   ar
    18    21    22   ar
    19    22    23   ar
    20    23    24   ar
    21    24    25    1
    22     4     5   ar
    23     5     6   ar
    24    12     7   ar
    25     6     1   ar
    26    24    19   ar
    27    17    18    1
    28    25    26    1
    29    25    27    1
@<TRIPOS>MOLECULE
*****
 27 29 0 0 0
SMALL
GASTEIGER

@<TRIPOS>ATOM
      1 C         141.2446  143.2144  164.4541 C.ar    1  UNL1        0.0183
      2 C         140.8803  142.1372  163.4759 C.ar    1  UNL1        0.0017
      3 C         140.6438  142.4812  162.0352 C.ar    1  UNL1        0.0046
      4 C         140.7716  143.9024  161.5726 C.ar    1  UNL1        0.0537
      5 C         141.1359  144.9796  162.5508 C.ar    1  UNL1        0.0046
      6 C         141.3724  144.6356  163.9916 C.ar    1  UNL1        0.0017
      7 C         142.8552  142.4872  166.3587 C.ar    1  UNL1        0.0861
      8 C         143.0916  142.1433  167.7994 C.ar    1  UNL1        0.0134
      9 C         141.9541  142.1825  168.7763 C.ar    1  UNL1        0.0214
     10 C         140.5801  142.5657  168.3126 C.ar    1  UNL1        0.0989
     11 N         140.3436  142.9097  166.8718 N.ar    1  UNL1       -0.2432
     12 C         141.4812  142.8704  165.8949 C.ar    1  UNL1        0.0909
     13 N         145.1303  142.4087  164.4048 N.1     1  UNL1       -0.1908
     14 C         143.9928  142.4480  165.3818 C.1     1  UNL1        0.1019
     15 C         140.5351  144.2463  160.1319 C.2     1  UNL1        0.2495
     16 O         139.2866  143.7788  159.4445 O.2     1  UNL1       -0.2698
     17 N         141.5471  145.0577  159.3786 N.am    1  UNL1       -0.2794
     18 H         142.3665  145.3646  159.8298 H       1  UNL1        0.1552
     19 C         141.3105  145.4017  157.9379 C.ar    1  UNL1        0.0636
     20 C         140.1636  146.2903  157.5574 C.ar    1  UNL1        0.0159
     21 C         139.9271  146.6342  156.1166 C.ar    1  UNL1        0.0014
     22 C         140.8375  146.0895  155.0563 C.ar    1  UNL1        0.0013
     23 C         141.9845  145.2009  155.4368 C.ar    1  UNL1        0.0153
     24 C         142.2210  144.8569  156.8775 C.ar    1  UNL1        0.0552
     25 N         143.3680  143.9683  157.2579 N.pl3   1  UNL1       -0.3560
     26 H         143.9656  143.6107  156.5620 H       1  UNL1        0.1424
     27 H         143.5233  143.7425  158.2035 H       1  UNL1        0.1424
@<TRIPOS>BOND
     1    13    14    3
     2    14     7    1
     3     7     8   ar
     4     8     9   ar
     5     9    10   ar
     6    10    11   ar
     7    11    12   ar
     8    12     1    1
     9     1     2   ar
    10     2     3   ar
    11     3     4   ar
    12     4    15    1
    13    15    16    2
    14    15    17   am
    15    17    19    1
    16    19    20   ar
    17    20    21   ar
    18    21    22   ar
    19    22    23   ar
    20    23    24   ar
    21    24    25    1
    22     4     5   ar
    23     5     6   ar
    24    12     7   ar
    25     6     1   ar
    26    24    19   ar
    27    17    18    1
    28    25    26    1
    29    25    27    1
@<TRIPOS>MOLECULE
*****
 27 29 0 0 0
SMALL
GASTEIGER

@<TRIPOS>ATOM
      1 C         140.4251  141.4192  166.2212 C.ar    1  UNL1        0.0183
      2 C         140.8288  142.8326  165.9228 C.ar    1  UNL1        0.0017
      3 C         140.5417  143.4260  164.5754 C.ar    1  UNL1        0.0046
      4 C         139.8508  142.6060  163.5265 C.ar    1  UNL1        0.0537
      5 C         139.4471  141.1925  163.8250 C.ar    1  UNL1        0.0046
      6 C         139.7342  140.5991  165.1724 C.ar    1  UNL1        0.0017
      7 C         141.9112  139.9449  167.7602 C.ar    1  UNL1        0.0861
      8 C         142.1984  139.3516  169.1075 C.ar    1  UNL1        0.0134
      9 C         141.2866  139.6391  170.2634 C.ar    1  UNL1        0.0214
     10 C         140.0877  140.5199  170.0719 C.ar    1  UNL1        0.0989
     11 N         139.8006  141.1133  168.7245 N.ar    1  UNL1       -0.2432
     12 C         140.7123  140.8258  167.5687 C.ar    1  UNL1        0.0909
     13 N         143.7348  139.3700  165.4484 N.1     1  UNL1       -0.1908
     14 C         142.8230  139.6575  166.6043 C.1     1  UNL1        0.1019
     15 C         139.5636  143.1994  162.1791 C.2     1  UNL1        0.2495
     16 O         138.4149  144.1484  162.0070 O.2     1  UNL1       -0.2698
     17 N         140.4252  142.8438  161.0039 N.am    1  UNL1       -0.2794
     18 H         141.1792  142.2209  161.1169 H       1  UNL1        0.1552
     19 C         140.1381  143.4372  159.6566 C.ar    1  UNL1        0.0636
     20 C         139.2419  142.7151  158.6946 C.ar    1  UNL1        0.0159
     21 C         138.9548  143.3085  157.3472 C.ar    1  UNL1        0.0014
     22 C         139.5638  144.6240  156.9618 C.ar    1  UNL1        0.0013
     23 C         140.4599  145.3461  157.9238 C.ar    1  UNL1        0.0153
     24 C         140.7471  144.7527  159.2712 C.ar    1  UNL1        0.0552
     25 N         141.6432  145.4748  160.2332 N.pl3   1  UNL1       -0.3560
     26 H         142.0429  146.3383  159.9803 H       1  UNL1        0.1424
     27 H         141.8317  145.0853  161.1175 H       1  UNL1        0.1424
@<TRIPOS>BOND
     1    13    14    3
     2    14     7    1
     3     7     8   ar
     4     8     9   ar
     5     9    10   ar
     6    10    11   ar
     7    11    12   ar
     8    12     1    1
     9     1     2   ar
    10     2     3   ar
    11     3     4   ar
    12     4    15    1
    13    15    16    2
    14    15    17   am
    15    17    19    1
    16    19    20   ar
    17    20    21   ar
    18    21    22   ar
    19    22    23   ar
    20    23    24   ar
    21    24    25    1
    22     4     5   ar
    23     5     6   ar
    24    12     7   ar
    25     6     1   ar
    26    24    19   ar
    27    17    18    1
    28    25    26    1
    29    25    27    1
@<TRIPOS>MOLECULE
*****
 27 29 0 0 0
SMALL
GASTEIGER

@<TRIPOS>ATOM
      1 C         141.1014  143.0146  161.5921 C.ar    1  UNL1        0.0183
      2 C         141.7979  144.0463  160.7551 C.ar    1  UNL1        0.0017
      3 C         142.7877  143.6216  159.7112 C.ar    1  UNL1        0.0046
      4 C         143.0811  142.1651  159.5043 C.ar    1  UNL1        0.0537
      5 C         142.3846  141.1334  160.3413 C.ar    1  UNL1        0.0046
      6 C         141.3947  141.5582  161.3852 C.ar    1  UNL1        0.0017
      7 C         140.5684  143.7009  164.0406 C.ar    1  UNL1        0.0861
      8 C         139.5785  144.1257  165.0844 C.ar    1  UNL1        0.0134
      9 C         138.1317  144.2890  164.7237 C.ar    1  UNL1        0.0214
     10 C         137.6748  144.0275  163.3192 C.ar    1  UNL1        0.0989
     11 N         138.6647  143.6027  162.2753 N.ar    1  UNL1       -0.2432
     12 C         140.1115  143.4394  162.6360 C.ar    1  UNL1        0.0909
     13 N         143.4620  143.3743  164.7620 N.1     1  UNL1       -0.1908
     14 C         142.0152  143.5376  164.4013 C.1     1  UNL1        0.1019
     15 C         144.0710  141.7404  158.4604 C.2     1  UNL1        0.2495
     16 O         144.4579  140.2964  158.3372 O.2     1  UNL1       -0.2698
     17 N         144.6739  142.7596  157.5397 N.am    1  UNL1       -0.2794
     18 H         144.4199  143.7073  157.6206 H       1  UNL1        0.1552
     19 C         145.6637  142.3349  156.4958 C.ar    1  UNL1        0.0636
     20 C         145.1920  141.6371  155.2547 C.ar    1  UNL1        0.0159
     21 C         146.1819  141.2123  154.2108 C.ar    1  UNL1        0.0014
     22 C         147.6435  141.4854  154.4080 C.ar    1  UNL1        0.0013
     23 C         148.1153  142.1832  155.6492 C.ar    1  UNL1        0.0153
     24 C         147.1255  142.6080  156.6931 C.ar    1  UNL1        0.0552
     25 N         147.5973  143.3058  157.9342 N.pl3   1  UNL1       -0.3560
     26 H         148.5566  143.4850  158.0637 H       1  UNL1        0.1424
     27 H         146.9476  143.5845  158.6194 H       1  UNL1        0.1424
@<TRIPOS>BOND
     1    13    14    3
     2    14     7    1
     3     7     8   ar
     4     8     9   ar
     5     9    10   ar
     6    10    11   ar
     7    11    12   ar
     8    12     1    1
     9     1     2   ar
    10     2     3   ar
    11     3     4   ar
    12     4    15    1
    13    15    16    2
    14    15    17   am
    15    17    19    1
    16    19    20   ar
    17    20    21   ar
    18    21    22   ar
    19    22    23   ar
    20    23    24   ar
    21    24    25    1
    22     4     5   ar
    23     5     6   ar
    24    12     7   ar
    25     6     1   ar
    26    24    19   ar
    27    17    18    1
    28    25    26    1
    29    25    27    1
@<TRIPOS>MOLECULE
*****
 27 29 0 0 0
SMALL
GASTEIGER

@<TRIPOS>ATOM
      1 C         141.6379  140.4362  166.5619 C.ar    1  UNL1        0.0183
      2 C         142.3119  139.1258  166.2815 C.ar    1  UNL1        0.0017
      3 C         142.2334  138.5200  164.9115 C.ar    1  UNL1        0.0046
      4 C         141.4808  139.2247  163.8219 C.ar    1  UNL1        0.0537
      5 C         140.8069  140.5351  164.1023 C.ar    1  UNL1        0.0046
      6 C         140.8854  141.1408  165.4723 C.ar    1  UNL1        0.0017
      7 C         140.6055  140.8198  168.9150 C.ar    1  UNL1        0.0861
      8 C         140.6840  141.4255  170.2850 C.ar    1  UNL1        0.0134
      9 C         141.8736  142.2533  170.6719 C.ar    1  UNL1        0.0214
     10 C         142.9845  142.4754  169.6889 C.ar    1  UNL1        0.0989
     11 N         142.9059  141.8697  168.3189 N.ar    1  UNL1       -0.2432
     12 C         141.7164  141.0419  167.9320 C.ar    1  UNL1        0.0909
     13 N         138.2264  139.1641  168.1411 N.1     1  UNL1       -0.1908
     14 C         139.4159  139.9919  168.5281 C.1     1  UNL1        0.1019
     15 C         141.4023  138.6190  162.4519 C.2     1  UNL1        0.2495
     16 O         141.4669  137.1297  162.2856 O.2     1  UNL1       -0.2698
     17 N         141.2593  139.5026  161.2482 N.am    1  UNL1       -0.2794
     18 H         141.2169  140.4801  161.3574 H       1  UNL1        0.1552
     19 C         141.1808  138.8968  159.8782 C.ar    1  UNL1        0.0636
     20 C         139.8714  138.8625  159.1473 C.ar    1  UNL1        0.0159
     21 C         139.7929  138.2567  157.7772 C.ar    1  UNL1        0.0014
     22 C         141.0238  137.6853  157.1382 C.ar    1  UNL1        0.0013
     23 C         142.3332  137.7197  157.8692 C.ar    1  UNL1        0.0153
     24 C         142.4117  138.3254  159.2392 C.ar    1  UNL1        0.0552
     25 N         143.7211  138.3598  159.9701 N.pl3   1  UNL1       -0.3560
     26 H         144.5290  137.9847  159.5507 H       1  UNL1        0.1424
     27 H         143.7726  138.7573  160.8693 H       1  UNL1        0.1424
@<TRIPOS>BOND
     1    13    14    3
     2    14     7    1
     3     7     8   ar
     4     8     9   ar
     5     9    10   ar
     6    10    11   ar
     7    11    12   ar
     8    12     1    1
     9     1     2   ar
    10     2     3   ar
    11     3     4   ar
    12     4    15    1
    13    15    16    2
    14    15    17   am
    15    17    19    1
    16    19    20   ar
    17    20    21   ar
    18    21    22   ar
    19    22    23   ar
    20    23    24   ar
    21    24    25    1
    22     4     5   ar
    23     5     6   ar
    24    12     7   ar
    25     6     1   ar
    26    24    19   ar
    27    17    18    1
    28    25    26    1
    29    25    27    1
@<TRIPOS>MOLECULE
*****
 27 29 0 0 0
SMALL
GASTEIGER

@<TRIPOS>ATOM
      1 C         140.9302  140.1533  166.7647 C.ar    1  UNL1        0.0183
      2 C         139.7025  139.5262  166.1736 C.ar    1  UNL1        0.0017
      3 C         139.7476  138.9475  164.7906 C.ar    1  UNL1        0.0046
      4 C         141.0206  138.9959  163.9984 C.ar    1  UNL1        0.0537
      5 C         142.2483  139.6231  164.5895 C.ar    1  UNL1        0.0046
      6 C         142.2031  140.2018  165.9727 C.ar    1  UNL1        0.0017
      7 C         140.4869  142.1642  168.3490 C.ar    1  UNL1        0.0861
      8 C         140.4417  142.7428  169.7322 C.ar    1  UNL1        0.0134
      9 C         140.7947  141.8894  170.9141 C.ar    1  UNL1        0.0214
     10 C         141.1928  140.4573  170.7130 C.ar    1  UNL1        0.0989
     11 N         141.2380  139.8786  169.3299 N.ar    1  UNL1       -0.2432
     12 C         140.8850  140.7321  168.1479 C.ar    1  UNL1        0.0909
     13 N         139.7810  143.8711  165.9851 N.1     1  UNL1       -0.1908
     14 C         140.1339  143.0176  167.1671 C.1     1  UNL1        0.1019
     15 C         141.0657  138.4172  162.6153 C.2     1  UNL1        0.2495
     16 O         140.8946  136.9407  162.4142 O.2     1  UNL1       -0.2698
     17 N         141.2820  139.3150  161.4333 N.am    1  UNL1       -0.2794
     18 H         141.3943  140.2842  161.5653 H       1  UNL1        0.1552
     19 C         141.3271  138.7363  160.0502 C.ar    1  UNL1        0.0636
     20 C         142.6088  138.1687  159.5162 C.ar    1  UNL1        0.0159
     21 C         142.6539  137.5900  158.1330 C.ar    1  UNL1        0.0014
     22 C         141.4174  137.5789  157.2840 C.ar    1  UNL1        0.0013
     23 C         140.1357  138.1465  157.8180 C.ar    1  UNL1        0.0153
     24 C         140.0906  138.7252  159.2011 C.ar    1  UNL1        0.0552
     25 N         138.8089  139.2928  159.7352 N.pl3   1  UNL1       -0.3560
     26 H         137.9974  139.2855  159.1779 H       1  UNL1        0.1424
     27 H         138.7793  139.6726  160.6430 H       1  UNL1        0.1424
@<TRIPOS>BOND
     1    13    14    3
     2    14     7    1
     3     7     8   ar
     4     8     9   ar
     5     9    10   ar
     6    10    11   ar
     7    11    12   ar
     8    12     1    1
     9     1     2   ar
    10     2     3   ar
    11     3     4   ar
    12     4    15    1
    13    15    16    2
    14    15    17   am
    15    17    19    1
    16    19    20   ar
    17    20    21   ar
    18    21    22   ar
    19    22    23   ar
    20    23    24   ar
    21    24    25    1
    22     4     5   ar
    23     5     6   ar
    24    12     7   ar
    25     6     1   ar
    26    24    19   ar
    27    17    18    1
    28    25    26    1
    29    25    27    1
