@<TRIPOS>MOLECULE
*****
 36 39 0 0 0
SMALL
GASTEIGER

@<TRIPOS>ATOM
      1 C         140.8508  142.2574  163.7475 C.3     1  UNL1        0.2551
      2 N         141.2652  142.4807  165.1717 N.2     1  UNL1       -0.2434
      3 C         140.7570  141.8044  166.4105 C.2     1  UNL1        0.0795
      4 C         139.7091  140.7379  166.5310 C.ar    1  UNL1        0.0310
      5 C         139.4992  140.3349  167.9605 C.ar    1  UNL1        0.0027
      6 C         138.4907  139.2782  168.3014 C.ar    1  UNL1        0.0001
      7 C         137.6921  138.6246  167.2129 C.ar    1  UNL1        0.0013
      8 C         137.9020  139.0276  165.7834 C.ar    1  UNL1        0.0150
      9 C         138.9105  140.0843  165.4424 C.ar    1  UNL1        0.0556
     10 N         138.9626  140.3357  163.9646 N.am    1  UNL1       -0.2474
     11 C         139.8261  141.3028  163.2102 C.2     1  UNL1        0.2714
     12 O         139.6403  141.3172  161.7218 O.2     1  UNL1       -0.2705
     13 C         141.3791  142.2541  167.6992 C.ar    1  UNL1        0.0174
     14 C         142.7871  141.8572  168.0311 C.ar    1  UNL1        0.0015
     15 C         143.4091  142.3069  169.3198 C.ar    1  UNL1        0.0000
     16 C         142.6232  143.1536  170.2766 C.ar    1  UNL1        0.0000
     17 C         141.2154  143.5505  169.9448 C.ar    1  UNL1        0.0000
     18 C         140.5932  143.1008  168.6561 C.ar    1  UNL1        0.0015
     19 O         139.4576  144.6229  162.5378 O.2     1  UNL1       -0.2747
     20 C         140.8577  144.2829  162.1205 C.2     1  UNL1        0.2285
     21 N         141.5543  143.1002  162.7253 N.am    1  UNL1       -0.2795
     22 H         142.4732  142.8770  162.4514 H       1  UNL1        0.1516
     23 C         141.5612  145.1257  161.0983 C.3     1  UNL1        0.1122
     24 C         141.3892  144.8321  159.6373 C.ar    1  UNL1       -0.0024
     25 C         140.3049  145.5150  158.8577 C.ar    1  UNL1       -0.0021
     26 C         140.1329  145.2215  157.3967 C.ar    1  UNL1        0.0111
     27 C         141.0453  144.2450  156.7155 C.ar    1  UNL1        0.0585
     28 CL        140.8734  143.9515  155.2546 Cl      1  UNL1       -0.0822
     29 C         142.1297  143.5621  157.4952 C.ar    1  UNL1        0.0225
     30 C         142.3016  143.8557  158.9561 C.ar    1  UNL1        0.0550
     31 CL        143.3860  143.1728  159.7358 Cl      1  UNL1       -0.0825
     32 C         138.0274  139.5109  163.1308 C.3     1  UNL1        0.2017
     33 C         138.5752  138.5082  162.1588 C.3     1  UNL1        0.4160
     34 F         139.1231  137.5056  161.1870 F       1  UNL1       -0.1682
     35 F         139.6777  137.8315  162.9182 F       1  UNL1       -0.1682
     36 F         137.5757  138.9557  161.1339 F       1  UNL1       -0.1682
@<TRIPOS>BOND
     1    19    20    2
     2    20    23    1
     3    23    24    1
     4    24    25   ar
     5    25    26   ar
     6    26    27   ar
     7    27    28    1
     8    27    29   ar
     9    29    30   ar
    10    30    31    1
    11    20    21   am
    12     1    21    1
    13     1     2    1
    14     2     3    2
    15     3    13    1
    16    13    14   ar
    17    14    15   ar
    18    15    16   ar
    19    16    17   ar
    20    17    18   ar
    21     3     4    1
    22     4     5   ar
    23     5     6   ar
    24     6     7   ar
    25     7     8   ar
    26     8     9   ar
    27     9    10    1
    28    10    32    1
    29    32    33    1
    30    33    34    1
    31    33    35    1
    32    33    36    1
    33    10    11   am
    34    11    12    2
    35    30    24   ar
    36    11     1    1
    37    18    13   ar
    38     9     4   ar
    39    21    22    1
@<TRIPOS>MOLECULE
*****
 36 39 0 0 0
SMALL
GASTEIGER

@<TRIPOS>ATOM
      1 C         141.9327  140.9494  163.7773 C.3     1  UNL1        0.2551
      2 N         142.0264  141.4709  165.1807 N.2     1  UNL1       -0.2434
      3 C         141.1766  141.1220  166.3666 C.2     1  UNL1        0.0795
      4 C         140.0235  140.1657  166.4421 C.ar    1  UNL1        0.0310
      5 C         139.4465  140.1110  167.8256 C.ar    1  UNL1        0.0027
      6 C         138.2814  139.2125  168.1172 C.ar    1  UNL1        0.0001
      7 C         137.6932  138.3687  167.0254 C.ar    1  UNL1        0.0013
      8 C         138.2701  138.4235  165.6419 C.ar    1  UNL1        0.0150
      9 C         139.4352  139.3219  165.3502 C.ar    1  UNL1        0.0556
     10 N         139.8549  139.2262  163.9133 N.am    1  UNL1       -0.2474
     11 C         140.9664  139.9504  163.2133 C.2     1  UNL1        0.2714
     12 O         141.1336  139.6339  161.7567 O.2     1  UNL1       -0.2705
     13 C         141.5263  141.8222  167.6462 C.ar    1  UNL1        0.0174
     14 C         142.8266  141.5252  168.3325 C.ar    1  UNL1        0.0015
     15 C         143.1763  142.2254  169.6122 C.ar    1  UNL1        0.0000
     16 C         142.2256  143.2224  170.2056 C.ar    1  UNL1        0.0000
     17 C         140.9254  143.5194  169.5193 C.ar    1  UNL1        0.0000
     18 C         140.5756  142.8193  168.2397 C.ar    1  UNL1        0.0015
     19 O         141.2555  143.3526  162.1142 O.2     1  UNL1       -0.2747
     20 C         142.6000  142.7013  161.9786 C.2     1  UNL1        0.2285
     21 N         142.9386  141.4997  162.8101 N.am    1  UNL1       -0.2795
     22 H         143.8209  141.0723  162.7211 H       1  UNL1        0.1516
     23 C         143.6058  143.2516  161.0114 C.3     1  UNL1        0.1122
     24 C         143.5317  142.8803  159.5599 C.ar    1  UNL1       -0.0024
     25 C         144.3412  141.7306  159.0376 C.ar    1  UNL1       -0.0021
     26 C         144.2671  141.3593  157.5861 C.ar    1  UNL1        0.0111
     27 C         143.3835  142.1378  156.6570 C.ar    1  UNL1        0.0585
     28 CL        143.3093  141.7666  155.2056 Cl      1  UNL1       -0.0822
     29 C         142.5739  143.2875  157.1794 C.ar    1  UNL1        0.0225
     30 C         142.6481  143.6588  158.6308 C.ar    1  UNL1        0.0550
     31 CL        141.8385  144.8085  159.1532 Cl      1  UNL1       -0.0825
     32 C         139.0576  138.2811  163.0641 C.3     1  UNL1        0.2017
     33 C         138.0986  138.8173  162.0428 C.3     1  UNL1        0.4160
     34 F         137.1398  139.3535  161.0216 F       1  UNL1       -0.1682
     35 F         137.4201  139.9560  162.7448 F       1  UNL1       -0.1682
     36 F         138.5589  137.7774  161.0647 F       1  UNL1       -0.1682
@<TRIPOS>BOND
     1    19    20    2
     2    20    23    1
     3    23    24    1
     4    24    25   ar
     5    25    26   ar
     6    26    27   ar
     7    27    28    1
     8    27    29   ar
     9    29    30   ar
    10    30    31    1
    11    20    21   am
    12     1    21    1
    13     1     2    1
    14     2     3    2
    15     3    13    1
    16    13    14   ar
    17    14    15   ar
    18    15    16   ar
    19    16    17   ar
    20    17    18   ar
    21     3     4    1
    22     4     5   ar
    23     5     6   ar
    24     6     7   ar
    25     7     8   ar
    26     8     9   ar
    27     9    10    1
    28    10    32    1
    29    32    33    1
    30    33    34    1
    31    33    35    1
    32    33    36    1
    33    10    11   am
    34    11    12    2
    35    30    24   ar
    36    11     1    1
    37    18    13   ar
    38     9     4   ar
    39    21    22    1
@<TRIPOS>MOLECULE
*****
 36 39 0 0 0
SMALL
GASTEIGER

@<TRIPOS>ATOM
      1 C         142.9919  138.3213  160.2989 C.3     1  UNL1        0.2551
      2 N         142.7387  137.4513  159.1035 N.2     1  UNL1       -0.2434
      3 C         142.9084  137.7853  157.6510 C.2     1  UNL1        0.0795
      4 C         143.3733  139.0716  157.0352 C.ar    1  UNL1        0.0310
      5 C         143.4001  138.9842  155.5380 C.ar    1  UNL1        0.0027
      6 C         143.8368  140.1669  154.7254 C.ar    1  UNL1        0.0001
      7 C         144.2468  141.4371  155.4100 C.ar    1  UNL1        0.0013
      8 C         144.2200  141.5245  156.9071 C.ar    1  UNL1        0.0150
      9 C         143.7832  140.3418  157.7197 C.ar    1  UNL1        0.0556
     10 N         143.8295  140.6392  159.1892 N.am    1  UNL1       -0.2474
     11 C         143.4774  139.7401  160.3371 C.2     1  UNL1        0.2714
     12 O         143.6310  140.3389  161.7037 O.2     1  UNL1       -0.2705
     13 C         142.5683  136.6877  156.6868 C.ar    1  UNL1        0.0174
     14 C         141.2043  136.6314  156.0652 C.ar    1  UNL1        0.0015
     15 C         140.8642  135.5339  155.1010 C.ar    1  UNL1        0.0000
     16 C         141.8881  134.4925  154.7585 C.ar    1  UNL1        0.0000
     17 C         143.2520  134.5487  155.3801 C.ar    1  UNL1        0.0000
     18 C         143.5922  135.6463  156.3443 C.ar    1  UNL1        0.0015
     19 O         140.2263  138.3819  161.4597 O.2     1  UNL1       -0.2747
     20 C         141.3415  137.7192  162.2129 C.2     1  UNL1        0.2285
     21 N         142.7243  137.6889  161.6325 N.am    1  UNL1       -0.2795
     22 H         143.4562  137.2540  162.1268 H       1  UNL1        0.1516
     23 C         141.0739  137.0868  163.5465 C.3     1  UNL1        0.1122
     24 C         140.6894  137.9412  164.7180 C.ar    1  UNL1       -0.0024
     25 C         139.2468  138.0778  165.1053 C.ar    1  UNL1       -0.0021
     26 C         138.8624  138.9321  166.2769 C.ar    1  UNL1        0.0111
     27 C         139.9207  139.6497  167.0611 C.ar    1  UNL1        0.0585
     28 CL        139.5363  140.5040  168.2326 Cl      1  UNL1       -0.0822
     29 C         141.3634  139.5131  166.6737 C.ar    1  UNL1        0.0225
     30 C         141.7477  138.6588  165.5022 C.ar    1  UNL1        0.0550
     31 CL        143.1905  138.5222  165.1149 Cl      1  UNL1       -0.0825
     32 C         144.2888  142.0183  159.5599 C.3     1  UNL1        0.2017
     33 C         143.3001  143.0284  160.0621 C.3     1  UNL1        0.4160
     34 F         142.3114  144.0384  160.5643 F       1  UNL1       -0.1682
     35 F         142.1460  142.9104  159.1113 F       1  UNL1       -0.1682
     36 F         144.2430  143.4018  161.1673 F       1  UNL1       -0.1682
@<TRIPOS>BOND
     1    19    20    2
     2    20    23    1
     3    23    24    1
     4    24    25   ar
     5    25    26   ar
     6    26    27   ar
     7    27    28    1
     8    27    29   ar
     9    29    30   ar
    10    30    31    1
    11    20    21   am
    12     1    21    1
    13     1     2    1
    14     2     3    2
    15     3    13    1
    16    13    14   ar
    17    14    15   ar
    18    15    16   ar
    19    16    17   ar
    20    17    18   ar
    21     3     4    1
    22     4     5   ar
    23     5     6   ar
    24     6     7   ar
    25     7     8   ar
    26     8     9   ar
    27     9    10    1
    28    10    32    1
    29    32    33    1
    30    33    34    1
    31    33    35    1
    32    33    36    1
    33    10    11   am
    34    11    12    2
    35    30    24   ar
    36    11     1    1
    37    18    13   ar
    38     9     4   ar
    39    21    22    1
@<TRIPOS>MOLECULE
*****
 36 39 0 0 0
SMALL
GASTEIGER

@<TRIPOS>ATOM
      1 C         140.5401  139.1264  158.5383 C.3     1  UNL1        0.2551
      2 N         140.8983  137.8800  157.7844 N.2     1  UNL1       -0.2434
      3 C         142.0211  137.6645  156.8134 C.2     1  UNL1        0.0795
      4 C         143.0631  138.6420  156.3565 C.ar    1  UNL1        0.0310
      5 C         144.0071  138.0168  155.3727 C.ar    1  UNL1        0.0027
      6 C         145.1276  138.8261  154.7901 C.ar    1  UNL1        0.0001
      7 C         145.3041  140.2606  155.1913 C.ar    1  UNL1        0.0013
      8 C         144.3601  140.8858  156.1751 C.ar    1  UNL1        0.0150
      9 C         143.2396  140.0765  156.7577 C.ar    1  UNL1        0.0556
     10 N         142.4177  140.8878  157.7150 N.am    1  UNL1       -0.2474
     11 C         141.2163  140.4650  158.5074 C.2     1  UNL1        0.2714
     12 O         140.6112  141.5203  159.3850 O.2     1  UNL1       -0.2705
     13 C         142.1143  136.2896  156.2210 C.ar    1  UNL1        0.0174
     14 C         142.9981  135.2575  156.8563 C.ar    1  UNL1        0.0015
     15 C         143.0913  133.8826  156.2639 C.ar    1  UNL1        0.0000
     16 C         142.3006  133.5398  155.0361 C.ar    1  UNL1        0.0000
     17 C         141.4168  134.5718  154.4009 C.ar    1  UNL1        0.0000
     18 C         141.3236  135.9467  154.9932 C.ar    1  UNL1        0.0015
     19 O         140.7987  137.7852  161.2093 O.2     1  UNL1       -0.2747
     20 C         139.4774  138.3495  160.7782 C.2     1  UNL1        0.2285
     21 N         139.3482  139.0201  159.4427 N.am    1  UNL1       -0.2795
     22 H         138.4810  139.3905  159.1597 H       1  UNL1        0.1516
     23 C         138.2855  138.2432  161.6826 C.3     1  UNL1        0.1122
     24 C         138.4191  138.5682  163.1409 C.ar    1  UNL1       -0.0024
     25 C         138.9123  137.5254  164.0995 C.ar    1  UNL1       -0.0021
     26 C         139.0460  137.8504  165.5579 C.ar    1  UNL1        0.0111
     27 C         138.6864  139.2183  166.0574 C.ar    1  UNL1        0.0585
     28 CL        138.8201  139.5433  167.5156 Cl      1  UNL1       -0.0822
     29 C         138.1932  140.2612  165.0986 C.ar    1  UNL1        0.0225
     30 C         138.0595  139.9361  163.6404 C.ar    1  UNL1        0.0550
     31 CL        137.5663  140.9790  162.6816 Cl      1  UNL1       -0.0825
     32 C         142.8550  142.3100  157.9049 C.3     1  UNL1        0.2017
     33 C         143.5354  142.7221  159.1767 C.3     1  UNL1        0.4160
     34 F         144.2157  143.1341  160.4484 F       1  UNL1       -0.1682
     35 F         144.4743  141.5895  159.4694 F       1  UNL1       -0.1682
     36 F         142.7372  143.9920  159.1921 F       1  UNL1       -0.1682
@<TRIPOS>BOND
     1    19    20    2
     2    20    23    1
     3    23    24    1
     4    24    25   ar
     5    25    26   ar
     6    26    27   ar
     7    27    28    1
     8    27    29   ar
     9    29    30   ar
    10    30    31    1
    11    20    21   am
    12     1    21    1
    13     1     2    1
    14     2     3    2
    15     3    13    1
    16    13    14   ar
    17    14    15   ar
    18    15    16   ar
    19    16    17   ar
    20    17    18   ar
    21     3     4    1
    22     4     5   ar
    23     5     6   ar
    24     6     7   ar
    25     7     8   ar
    26     8     9   ar
    27     9    10    1
    28    10    32    1
    29    32    33    1
    30    33    34    1
    31    33    35    1
    32    33    36    1
    33    10    11   am
    34    11    12    2
    35    30    24   ar
    36    11     1    1
    37    18    13   ar
    38     9     4   ar
    39    21    22    1
@<TRIPOS>MOLECULE
*****
 36 39 0 0 0
SMALL
GASTEIGER

@<TRIPOS>ATOM
      1 C         140.7876  144.7471  159.2349 C.3     1  UNL1        0.2551
      2 N         141.7680  143.8096  158.5946 N.2     1  UNL1       -0.2434
      3 C         142.9160  143.0812  159.2281 C.2     1  UNL1        0.0795
      4 C         143.3672  143.1102  160.6584 C.ar    1  UNL1        0.0310
      5 C         144.5640  142.2319  160.8734 C.ar    1  UNL1        0.0027
      6 C         145.1754  142.1184  162.2384 C.ar    1  UNL1        0.0001
      7 C         144.5900  142.8832  163.3884 C.ar    1  UNL1        0.0013
      8 C         143.3932  143.7614  163.1734 C.ar    1  UNL1        0.0150
      9 C         142.7818  143.8750  161.8083 C.ar    1  UNL1        0.0556
     10 N         141.6006  144.7995  161.8120 N.am    1  UNL1       -0.2474
     11 C         140.7130  145.1876  160.6668 C.2     1  UNL1        0.2714
     12 O         139.6045  146.1425  160.9971 O.2     1  UNL1       -0.2705
     13 C         143.7191  142.2081  158.3100 C.ar    1  UNL1        0.0174
     14 C         145.0559  142.6724  157.8125 C.ar    1  UNL1        0.0015
     15 C         145.8589  141.7994  156.8943 C.ar    1  UNL1        0.0000
     16 C         145.3252  140.4621  156.4737 C.ar    1  UNL1        0.0000
     17 C         143.9885  139.9979  156.9712 C.ar    1  UNL1        0.0000
     18 C         143.1854  140.8708  157.8893 C.ar    1  UNL1        0.0015
     19 O         141.6074  146.1844  156.7325 O.2     1  UNL1       -0.2747
     20 C         140.1535  146.0384  157.0715 C.2     1  UNL1        0.2285
     21 N         139.7436  145.3197  158.3226 N.am    1  UNL1       -0.2795
     22 H         138.7894  145.2239  158.5451 H       1  UNL1        0.1516
     23 C         139.1095  146.6110  156.1592 C.3     1  UNL1        0.1122
     24 C         139.0147  148.0956  155.9664 C.ar    1  UNL1       -0.0024
     25 C         138.4041  148.9532  157.0349 C.ar    1  UNL1       -0.0021
     26 C         138.3093  150.4377  156.8421 C.ar    1  UNL1        0.0111
     27 C         138.8251  151.0647  155.5808 C.ar    1  UNL1        0.0585
     28 CL        138.7303  152.5492  155.3879 Cl      1  UNL1       -0.0822
     29 C         139.4358  150.2070  154.5123 C.ar    1  UNL1        0.0225
     30 C         139.5305  148.7225  154.7051 C.ar    1  UNL1        0.0550
     31 CL        140.1412  147.8649  153.6366 Cl      1  UNL1       -0.0825
     32 C         141.2622  145.4176  163.1362 C.3     1  UNL1        0.2017
     33 C         140.3446  144.7042  164.0845 C.3     1  UNL1        0.4160
     34 F         139.4271  143.9907  165.0326 F       1  UNL1       -0.1682
     35 F         141.2625  143.8378  164.8949 F       1  UNL1       -0.1682
     36 F         139.1698  145.4192  163.4856 F       1  UNL1       -0.1682
@<TRIPOS>BOND
     1    19    20    2
     2    20    23    1
     3    23    24    1
     4    24    25   ar
     5    25    26   ar
     6    26    27   ar
     7    27    28    1
     8    27    29   ar
     9    29    30   ar
    10    30    31    1
    11    20    21   am
    12     1    21    1
    13     1     2    1
    14     2     3    2
    15     3    13    1
    16    13    14   ar
    17    14    15   ar
    18    15    16   ar
    19    16    17   ar
    20    17    18   ar
    21     3     4    1
    22     4     5   ar
    23     5     6   ar
    24     6     7   ar
    25     7     8   ar
    26     8     9   ar
    27     9    10    1
    28    10    32    1
    29    32    33    1
    30    33    34    1
    31    33    35    1
    32    33    36    1
    33    10    11   am
    34    11    12    2
    35    30    24   ar
    36    11     1    1
    37    18    13   ar
    38     9     4   ar
    39    21    22    1
@<TRIPOS>MOLECULE
*****
 36 39 0 0 0
SMALL
GASTEIGER

@<TRIPOS>ATOM
      1 C         140.1893  144.5243  159.0935 C.3     1  UNL1        0.2551
      2 N         140.1202  145.5768  158.0269 N.2     1  UNL1       -0.2434
      3 C         139.3741  145.5424  156.7261 C.2     1  UNL1        0.0795
      4 C         138.5129  144.4471  156.1704 C.ar    1  UNL1        0.0310
      5 C         137.9494  144.8191  154.8311 C.ar    1  UNL1        0.0027
      6 C         137.0580  143.8596  154.0998 C.ar    1  UNL1        0.0001
      7 C         136.7302  142.5282  154.7078 C.ar    1  UNL1        0.0013
      8 C         137.2937  142.1562  156.0472 C.ar    1  UNL1        0.0150
      9 C         138.1851  143.1156  156.7785 C.ar    1  UNL1        0.0556
     10 N         138.6376  142.5507  158.0924 N.am    1  UNL1       -0.2474
     11 C         139.5295  143.1775  159.1227 C.2     1  UNL1        0.2714
     12 O         139.7969  142.3480  160.3434 O.2     1  UNL1       -0.2705
     13 C         139.5068  146.7650  155.8672 C.ar    1  UNL1        0.0174
     14 C         138.7676  148.0193  156.2286 C.ar    1  UNL1        0.0015
     15 C         138.9003  149.2419  155.3698 C.ar    1  UNL1        0.0000
     16 C         139.7721  149.2102  154.1495 C.ar    1  UNL1        0.0000
     17 C         140.5112  147.9561  153.7881 C.ar    1  UNL1        0.0000
     18 C         140.3786  146.7334  154.6469 C.ar    1  UNL1        0.0015
     19 O         138.8903  145.5373  161.6008 O.2     1  UNL1       -0.2747
     20 C         140.3799  145.3700  161.5427 C.2     1  UNL1        0.2285
     21 N         141.0293  144.8635  160.2890 N.am    1  UNL1       -0.2795
     22 H         142.0069  144.7537  160.2509 H       1  UNL1        0.1516
     23 C         141.2199  145.7091  162.7382 C.3     1  UNL1        0.1122
     24 C         141.5570  144.6480  163.7434 C.ar    1  UNL1       -0.0024
     25 C         140.4795  144.0662  164.6098 C.ar    1  UNL1       -0.0021
     26 C         140.8166  143.0051  165.6150 C.ar    1  UNL1        0.0111
     27 C         142.2311  142.5257  165.7538 C.ar    1  UNL1        0.0585
     28 CL        142.5682  141.4646  166.7589 Cl      1  UNL1       -0.0822
     29 C         143.3086  143.1075  164.8873 C.ar    1  UNL1        0.0225
     30 C         142.9715  144.1686  163.8822 C.ar    1  UNL1        0.0550
     31 CL        144.0490  144.7504  163.0157 Cl      1  UNL1       -0.0825
     32 C         138.1310  141.1771  158.4191 C.3     1  UNL1        0.2017
     33 C         139.0478  139.9945  158.3127 C.3     1  UNL1        0.4160
     34 F         139.9645  138.8121  158.2062 F       1  UNL1       -0.1682
     35 F         139.8472  140.2656  157.0728 F       1  UNL1       -0.1682
     36 F         138.4524  139.4204  159.5640 F       1  UNL1       -0.1682
@<TRIPOS>BOND
     1    19    20    2
     2    20    23    1
     3    23    24    1
     4    24    25   ar
     5    25    26   ar
     6    26    27   ar
     7    27    28    1
     8    27    29   ar
     9    29    30   ar
    10    30    31    1
    11    20    21   am
    12     1    21    1
    13     1     2    1
    14     2     3    2
    15     3    13    1
    16    13    14   ar
    17    14    15   ar
    18    15    16   ar
    19    16    17   ar
    20    17    18   ar
    21     3     4    1
    22     4     5   ar
    23     5     6   ar
    24     6     7   ar
    25     7     8   ar
    26     8     9   ar
    27     9    10    1
    28    10    32    1
    29    32    33    1
    30    33    34    1
    31    33    35    1
    32    33    36    1
    33    10    11   am
    34    11    12    2
    35    30    24   ar
    36    11     1    1
    37    18    13   ar
    38     9     4   ar
    39    21    22    1
@<TRIPOS>MOLECULE
*****
 36 39 0 0 0
SMALL
GASTEIGER

@<TRIPOS>ATOM
      1 C         143.5753  142.6187  161.5230 C.3     1  UNL1        0.2551
      2 N         144.1852  142.2100  160.2150 N.2     1  UNL1       -0.2434
      3 C         143.8497  142.6932  158.8352 C.2     1  UNL1        0.0795
      4 C         142.8214  143.7043  158.4225 C.ar    1  UNL1        0.0310
      5 C         142.8096  143.8983  156.9352 C.ar    1  UNL1        0.0027
      6 C         141.8511  144.8700  156.3132 C.ar    1  UNL1        0.0001
      7 C         140.9043  145.6478  157.1785 C.ar    1  UNL1        0.0013
      8 C         140.9161  145.4538  158.6659 C.ar    1  UNL1        0.0150
      9 C         141.8746  144.4820  159.2878 C.ar    1  UNL1        0.0556
     10 N         141.7224  144.4407  160.7795 N.am    1  UNL1       -0.2474
     11 C         142.4792  143.6115  161.7743 C.2     1  UNL1        0.2714
     12 O         142.0884  143.7999  163.2101 O.2     1  UNL1       -0.2705
     13 C         144.6480  142.0847  157.7205 C.ar    1  UNL1        0.0174
     14 C         144.0988  140.9174  156.9551 C.ar    1  UNL1        0.0015
     15 C         144.8971  140.3089  155.8404 C.ar    1  UNL1        0.0000
     16 C         146.2446  140.8678  155.4912 C.ar    1  UNL1        0.0000
     17 C         146.7938  142.0350  156.2565 C.ar    1  UNL1        0.0000
     18 C         145.9955  142.6435  157.3712 C.ar    1  UNL1        0.0015
     19 O         142.2121  140.2009  162.6614 O.2     1  UNL1       -0.2747
     20 C         143.4540  140.7368  163.3101 C.2     1  UNL1        0.2285
     21 N         144.1355  141.9457  162.7409 N.am    1  UNL1       -0.2795
     22 H         144.9506  142.2974  163.1666 H       1  UNL1        0.1516
     23 C         144.0142  140.0637  164.5279 C.3     1  UNL1        0.1122
     24 C         143.4355  140.3575  165.8803 C.ar    1  UNL1       -0.0024
     25 C         143.0967  141.7683  166.2607 C.ar    1  UNL1       -0.0021
     26 C         142.5179  142.0621  167.6131 C.ar    1  UNL1        0.0111
     27 C         142.2780  140.9450  168.5849 C.ar    1  UNL1        0.0585
     28 CL        141.6993  141.2387  169.9372 Cl      1  UNL1       -0.0822
     29 C         142.6169  139.5341  168.2045 C.ar    1  UNL1        0.0225
     30 C         143.1956  139.2404  166.8521 C.ar    1  UNL1        0.0550
     31 CL        143.5344  137.8295  166.4717 Cl      1  UNL1       -0.0825
     32 C         140.6748  145.3487  161.3522 C.3     1  UNL1        0.2017
     33 C         139.4186  144.7714  161.9343 C.3     1  UNL1        0.4160
     34 F         138.1625  144.1940  162.5163 F       1  UNL1       -0.1682
     35 F         139.0604  143.6593  160.9935 F       1  UNL1       -0.1682
     36 F         139.4746  145.7735  163.0490 F       1  UNL1       -0.1682
@<TRIPOS>BOND
     1    19    20    2
     2    20    23    1
     3    23    24    1
     4    24    25   ar
     5    25    26   ar
     6    26    27   ar
     7    27    28    1
     8    27    29   ar
     9    29    30   ar
    10    30    31    1
    11    20    21   am
    12     1    21    1
    13     1     2    1
    14     2     3    2
    15     3    13    1
    16    13    14   ar
    17    14    15   ar
    18    15    16   ar
    19    16    17   ar
    20    17    18   ar
    21     3     4    1
    22     4     5   ar
    23     5     6   ar
    24     6     7   ar
    25     7     8   ar
    26     8     9   ar
    27     9    10    1
    28    10    32    1
    29    32    33    1
    30    33    34    1
    31    33    35    1
    32    33    36    1
    33    10    11   am
    34    11    12    2
    35    30    24   ar
    36    11     1    1
    37    18    13   ar
    38     9     4   ar
    39    21    22    1
@<TRIPOS>MOLECULE
*****
 36 39 0 0 0
SMALL
GASTEIGER

@<TRIPOS>ATOM
      1 C         140.7351  143.7162  161.3002 C.3     1  UNL1        0.2551
      2 N         141.4032  142.3789  161.1771 N.2     1  UNL1       -0.2434
      3 C         141.1242  141.1201  161.9437 C.2     1  UNL1        0.0795
      4 C         140.1083  140.8877  163.0226 C.ar    1  UNL1        0.0310
      5 C         140.1592  139.4765  163.5285 C.ar    1  UNL1        0.0027
      6 C         139.2223  139.0345  164.6132 C.ar    1  UNL1        0.0001
      7 C         138.2345  140.0036  165.1921 C.ar    1  UNL1        0.0013
      8 C         138.1836  141.4147  164.6862 C.ar    1  UNL1        0.0150
      9 C         139.1205  141.8568  163.6015 C.ar    1  UNL1        0.0556
     10 N         138.9046  143.2976  163.2443 N.am    1  UNL1       -0.2474
     11 C         139.6231  144.1252  162.2202 C.2     1  UNL1        0.2714
     12 O         139.1698  145.5499  162.1001 O.2     1  UNL1       -0.2705
     13 C         141.9734  139.9372  161.5837 C.ar    1  UNL1        0.0174
     14 C         143.2252  139.6490  162.3584 C.ar    1  UNL1        0.0015
     15 C         144.0744  138.4661  161.9984 C.ar    1  UNL1        0.0000
     16 C         143.6718  137.5713  160.8638 C.ar    1  UNL1        0.0000
     17 C         142.4201  137.8594  160.0892 C.ar    1  UNL1        0.0000
     18 C         141.5709  139.0423  160.4491 C.ar    1  UNL1        0.0015
     19 O         139.6869  143.9135  158.4961 O.2     1  UNL1       -0.2747
     20 C         140.7226  144.8849  158.9798 C.2     1  UNL1        0.2285
     21 N         141.2466  144.7862  160.3818 N.am    1  UNL1       -0.2795
     22 H         141.9264  145.4238  160.6992 H       1  UNL1        0.1516
     23 C         141.2342  145.9549  158.0614 C.3     1  UNL1        0.1122
     24 C         141.1603  145.7659  156.5752 C.ar    1  UNL1       -0.0024
     25 C         140.2400  146.6207  155.7552 C.ar    1  UNL1       -0.0021
     26 C         140.1662  146.4317  154.2690 C.ar    1  UNL1        0.0111
     27 C         141.0127  145.3879  153.6027 C.ar    1  UNL1        0.0585
     28 CL        140.9389  145.1989  152.1165 Cl      1  UNL1       -0.0822
     29 C         141.9330  144.5331  154.4227 C.ar    1  UNL1        0.0225
     30 C         142.0068  144.7221  155.9089 C.ar    1  UNL1        0.0550
     31 CL        142.9272  143.8673  156.7289 Cl      1  UNL1       -0.0825
     32 C         137.8277  144.0043  164.0130 C.3     1  UNL1        0.2017
     33 C         138.1721  144.7672  165.2578 C.3     1  UNL1        0.4160
     34 F         138.5166  145.5300  166.5025 F       1  UNL1       -0.1682
     35 F         139.6712  144.8189  165.2487 F       1  UNL1       -0.1682
     36 F         136.7131  144.9041  165.5776 F       1  UNL1       -0.1682
@<TRIPOS>BOND
     1    19    20    2
     2    20    23    1
     3    23    24    1
     4    24    25   ar
     5    25    26   ar
     6    26    27   ar
     7    27    28    1
     8    27    29   ar
     9    29    30   ar
    10    30    31    1
    11    20    21   am
    12     1    21    1
    13     1     2    1
    14     2     3    2
    15     3    13    1
    16    13    14   ar
    17    14    15   ar
    18    15    16   ar
    19    16    17   ar
    20    17    18   ar
    21     3     4    1
    22     4     5   ar
    23     5     6   ar
    24     6     7   ar
    25     7     8   ar
    26     8     9   ar
    27     9    10    1
    28    10    32    1
    29    32    33    1
    30    33    34    1
    31    33    35    1
    32    33    36    1
    33    10    11   am
    34    11    12    2
    35    30    24   ar
    36    11     1    1
    37    18    13   ar
    38     9     4   ar
    39    21    22    1
@<TRIPOS>MOLECULE
*****
 36 39 0 0 0
SMALL
GASTEIGER

@<TRIPOS>ATOM
      1 C         141.0663  140.7709  162.6041 C.3     1  UNL1        0.2551
      2 N         141.1000  139.9384  161.3567 N.2     1  UNL1       -0.2434
      3 C         141.3301  140.3819  159.9424 C.2     1  UNL1        0.0795
      4 C         141.5833  141.7673  159.4260 C.ar    1  UNL1        0.0310
      5 C         141.7617  141.7730  157.9367 C.ar    1  UNL1        0.0027
      6 C         142.0258  143.0627  157.2179 C.ar    1  UNL1        0.0001
      7 C         142.1115  144.3469  157.9884 C.ar    1  UNL1        0.0013
      8 C         141.9330  144.3412  159.4777 C.ar    1  UNL1        0.0150
      9 C         141.6689  143.0515  160.1965 C.ar    1  UNL1        0.0556
     10 N         141.5225  143.2673  161.6737 N.am    1  UNL1       -0.2474
     11 C         141.2543  142.2524  162.7452 C.2     1  UNL1        0.2714
     12 O         141.1620  142.7901  164.1424 O.2     1  UNL1       -0.2705
     13 C         141.3035  139.2964  158.9075 C.ar    1  UNL1        0.0174
     14 C         142.5751  138.6063  158.5116 C.ar    1  UNL1        0.0015
     15 C         142.5485  137.5208  157.4767 C.ar    1  UNL1        0.0000
     16 C         141.2503  137.1254  156.8377 C.ar    1  UNL1        0.0000
     17 C         139.9787  137.8155  157.2336 C.ar    1  UNL1        0.0000
     18 C         140.0052  138.9010  158.2685 C.ar    1  UNL1        0.0015
     19 O         143.3665  139.9310  164.3372 O.2     1  UNL1       -0.2747
     20 C         141.9609  139.6030  164.7455 C.2     1  UNL1        0.2285
     21 N         140.8108  140.0230  163.8790 N.am    1  UNL1       -0.2795
     22 H         139.8883  139.8078  164.1470 H       1  UNL1        0.1516
     23 C         141.7054  138.8551  166.0204 C.3     1  UNL1        0.1122
     24 C         141.5048  139.6062  167.3033 C.ar    1  UNL1       -0.0024
     25 C         142.6893  139.9997  168.1351 C.ar    1  UNL1       -0.0021
     26 C         142.4888  140.7508  169.4180 C.ar    1  UNL1        0.0111
     27 C         141.1036  141.1084  169.8690 C.ar    1  UNL1        0.0585
     28 CL        140.9030  141.8594  171.1518 Cl      1  UNL1       -0.0822
     29 C         139.9190  140.7149  169.0371 C.ar    1  UNL1        0.0225
     30 C         140.1196  139.9638  167.7543 C.ar    1  UNL1        0.0550
     31 CL        138.9350  139.5703  166.9224 Cl      1  UNL1       -0.0825
     32 C         141.6628  144.6857  162.1412 C.3     1  UNL1        0.2017
     33 C         142.8128  145.0747  163.0223 C.3     1  UNL1        0.4160
     34 F         143.9628  145.4638  163.9032 F       1  UNL1       -0.1682
     35 F         144.0043  144.4459  162.3626 F       1  UNL1       -0.1682
     36 F         141.8717  145.8198  163.9217 F       1  UNL1       -0.1682
@<TRIPOS>BOND
     1    19    20    2
     2    20    23    1
     3    23    24    1
     4    24    25   ar
     5    25    26   ar
     6    26    27   ar
     7    27    28    1
     8    27    29   ar
     9    29    30   ar
    10    30    31    1
    11    20    21   am
    12     1    21    1
    13     1     2    1
    14     2     3    2
    15     3    13    1
    16    13    14   ar
    17    14    15   ar
    18    15    16   ar
    19    16    17   ar
    20    17    18   ar
    21     3     4    1
    22     4     5   ar
    23     5     6   ar
    24     6     7   ar
    25     7     8   ar
    26     8     9   ar
    27     9    10    1
    28    10    32    1
    29    32    33    1
    30    33    34    1
    31    33    35    1
    32    33    36    1
    33    10    11   am
    34    11    12    2
    35    30    24   ar
    36    11     1    1
    37    18    13   ar
    38     9     4   ar
    39    21    22    1
