@<TRIPOS>MOLECULE
*****
 31 33 0 0 0
SMALL
GASTEIGER

@<TRIPOS>ATOM
      1 C         142.0542  144.0025  161.7241 C.ar    1  UNL1        0.0518
      2 C         142.9890  144.7314  162.6432 C.ar    1  UNL1        0.0148
      3 C         142.9610  144.4526  164.1168 C.ar    1  UNL1        0.0025
      4 C         141.9981  143.4449  164.6713 C.ar    1  UNL1        0.0148
      5 C         141.0633  142.7160  163.7522 C.ar    1  UNL1        0.0518
      6 C         141.0914  142.9948  162.2786 C.ar    1  UNL1        0.0293
      7 C         141.0403  145.1673  159.6348 C.2     1  UNL1        0.2495
      8 O         139.9702  145.7747  160.4928 O.2     1  UNL1       -0.2698
      9 N         142.0823  144.2812  160.2505 N.am    1  UNL1       -0.2803
     10 H         142.7846  143.8826  159.6874 H       1  UNL1        0.1552
     11 C         138.9057  147.3392  155.4245 C.3     1  UNL1        0.0310
     12 C         140.0010  146.5321  156.0561 C.ar    1  UNL1       -0.0217
     13 C         141.1242  146.0037  155.2141 C.ar    1  UNL1       -0.0043
     14 C         142.2195  145.1965  155.8456 C.ar    1  UNL1       -0.0002
     15 C         142.1915  144.9177  157.3192 C.ar    1  UNL1        0.0045
     16 C         141.0683  145.4461  158.1612 C.ar    1  UNL1        0.0534
     17 C         139.9730  146.2533  157.5296 C.ar    1  UNL1        0.0003
     18 N         140.1005  141.7083  164.3066 N.am    1  UNL1       -0.2804
     19 C         140.6139  140.4437  164.9289 C.2     1  UNL1        0.2495
     20 O         142.0902  140.1868  164.9967 O.2     1  UNL1       -0.2698
     21 H         139.1316  141.8769  164.2621 H       1  UNL1        0.1552
     22 C         139.6511  139.4360  165.4834 C.ar    1  UNL1        0.0576
     23 C         138.8128  139.7786  166.6792 C.ar    1  UNL1        0.0045
     24 C         137.8499  138.7709  167.2337 C.ar    1  UNL1        0.0001
     25 C         137.7254  137.4206  166.5923 C.ar    1  UNL1       -0.0001
     26 C         138.5637  137.0781  165.3966 C.ar    1  UNL1        0.0040
     27 C         139.5265  138.0858  164.8421 C.ar    1  UNL1        0.0758
     28 C         140.3648  137.7433  163.6463 C.3     1  UNL1        0.4187
     29 F         141.2032  137.4007  162.4505 F       1  UNL1       -0.1659
     30 F         141.3633  137.0688  164.5396 F       1  UNL1       -0.1659
     31 F         139.3662  138.4177  162.7531 F       1  UNL1       -0.1659
@<TRIPOS>BOND
     1    11    12    1
     2    12    13   ar
     3    13    14   ar
     4    14    15   ar
     5    15    16   ar
     6    16     7    1
     7     7     8    2
     8     7     9   am
     9     9     1    1
    10     1     2   ar
    11     2     3   ar
    12     3     4   ar
    13     4     5   ar
    14     5    18    1
    15    18    19   am
    16    19    20    2
    17    19    22    1
    18    22    23   ar
    19    23    24   ar
    20    24    25   ar
    21    25    26   ar
    22    26    27   ar
    23    27    28    1
    24    28    29    1
    25    28    30    1
    26    28    31    1
    27     5     6   ar
    28    16    17   ar
    29    17    12   ar
    30     6     1   ar
    31    27    22   ar
    32     9    10    1
    33    18    21    1
@<TRIPOS>MOLECULE
*****
 31 33 0 0 0
SMALL
GASTEIGER

@<TRIPOS>ATOM
      1 C         143.9040  142.5363  161.6785 C.ar    1  UNL1        0.0518
      2 C         144.5011  143.6576  162.4760 C.ar    1  UNL1        0.0148
      3 C         143.9366  144.0043  163.8218 C.ar    1  UNL1        0.0025
      4 C         142.7750  143.2296  164.3700 C.ar    1  UNL1        0.0148
      5 C         142.1779  142.1083  163.5725 C.ar    1  UNL1        0.0518
      6 C         142.7424  141.7616  162.2268 C.ar    1  UNL1        0.0293
      7 C         143.9467  142.8707  159.1024 C.2     1  UNL1        0.2495
      8 O         142.8604  143.8987  159.2178 O.2     1  UNL1       -0.2698
      9 N         144.4685  142.1895  160.3327 N.am    1  UNL1       -0.2803
     10 H         145.1814  141.5149  160.2569 H       1  UNL1        0.1552
     11 C         148.0465  142.1396  155.9948 C.3     1  UNL1        0.0310
     12 C         146.5611  142.1584  156.2028 C.ar    1  UNL1       -0.0217
     13 C         145.6402  141.8306  155.0651 C.ar    1  UNL1       -0.0043
     14 C         144.1549  141.8494  155.2731 C.ar    1  UNL1       -0.0002
     15 C         143.5903  142.1961  156.6188 C.ar    1  UNL1        0.0045
     16 C         144.5112  142.5240  157.7565 C.ar    1  UNL1        0.0534
     17 C         145.9966  142.5051  157.5485 C.ar    1  UNL1        0.0003
     18 N         141.0162  141.3337  164.1208 N.am    1  UNL1       -0.2804
     19 C         141.2556  140.1745  165.0422 C.2     1  UNL1        0.2495
     20 O         142.6567  139.7900  165.4154 O.2     1  UNL1       -0.2698
     21 H         140.0967  141.5861  163.8759 H       1  UNL1        0.1552
     22 C         140.0940  139.3999  165.5904 C.ar    1  UNL1        0.0576
     23 C         139.3278  139.9290  166.7665 C.ar    1  UNL1        0.0045
     24 C         138.1662  139.1543  167.3148 C.ar    1  UNL1        0.0001
     25 C         137.7708  137.8506  166.6870 C.ar    1  UNL1       -0.0001
     26 C         138.5370  137.3216  165.5109 C.ar    1  UNL1        0.0040
     27 C         139.6986  138.0963  164.9627 C.ar    1  UNL1        0.0758
     28 C         140.4648  137.5673  163.7867 C.3     1  UNL1        0.4187
     29 F         141.2311  137.0382  162.6106 F       1  UNL1       -0.1659
     30 F         141.3810  136.8280  164.7162 F       1  UNL1       -0.1659
     31 F         139.5486  138.3065  162.8572 F       1  UNL1       -0.1659
@<TRIPOS>BOND
     1    11    12    1
     2    12    13   ar
     3    13    14   ar
     4    14    15   ar
     5    15    16   ar
     6    16     7    1
     7     7     8    2
     8     7     9   am
     9     9     1    1
    10     1     2   ar
    11     2     3   ar
    12     3     4   ar
    13     4     5   ar
    14     5    18    1
    15    18    19   am
    16    19    20    2
    17    19    22    1
    18    22    23   ar
    19    23    24   ar
    20    24    25   ar
    21    25    26   ar
    22    26    27   ar
    23    27    28    1
    24    28    29    1
    25    28    30    1
    26    28    31    1
    27     5     6   ar
    28    16    17   ar
    29    17    12   ar
    30     6     1   ar
    31    27    22   ar
    32     9    10    1
    33    18    21    1
@<TRIPOS>MOLECULE
*****
 31 33 0 0 0
SMALL
GASTEIGER

@<TRIPOS>ATOM
      1 C         139.0654  139.9350  163.6980 C.ar    1  UNL1        0.0518
      2 C         138.7670  138.5249  163.2826 C.ar    1  UNL1        0.0148
      3 C         138.9372  138.1131  161.8503 C.ar    1  UNL1        0.0025
      4 C         139.4058  139.1113  160.8335 C.ar    1  UNL1        0.0148
      5 C         139.7043  140.5214  161.2489 C.ar    1  UNL1        0.0518
      6 C         139.5340  140.9332  162.6812 C.ar    1  UNL1        0.0293
      7 C         140.0939  140.4656  166.0241 C.2     1  UNL1        0.2495
      8 O         141.4629  140.1724  165.4857 O.2     1  UNL1       -0.2698
      9 N         138.8951  140.3469  165.1303 N.am    1  UNL1       -0.2803
     10 H         137.9966  140.5394  165.4837 H       1  UNL1        0.1552
     11 C         140.8134  143.9353  169.8246 C.3     1  UNL1        0.0310
     12 C         140.2834  142.6123  169.3566 C.ar    1  UNL1       -0.0217
     13 C         139.5832  141.7014  170.3208 C.ar    1  UNL1       -0.0043
     14 C         139.0533  140.3784  169.8529 C.ar    1  UNL1       -0.0002
     15 C         139.2235  139.9665  168.4206 C.ar    1  UNL1        0.0045
     16 C         139.9236  140.8775  167.4564 C.ar    1  UNL1        0.0534
     17 C         140.4536  142.2004  167.9244 C.ar    1  UNL1        0.0003
     18 N         140.1729  141.5196  160.2321 N.am    1  UNL1       -0.2804
     19 C         139.3611  142.7514  159.9608 C.2     1  UNL1        0.2495
     20 O         138.0806  142.9850  160.7064 O.2     1  UNL1       -0.2698
     21 H         141.0133  141.3663  159.7428 H       1  UNL1        0.1552
     22 C         139.8298  143.7496  158.9440 C.ar    1  UNL1        0.0576
     23 C         139.3977  143.6220  157.5132 C.ar    1  UNL1        0.0045
     24 C         139.8663  144.6202  156.4964 C.ar    1  UNL1        0.0001
     25 C         140.7670  145.7460  156.9104 C.ar    1  UNL1       -0.0001
     26 C         141.1991  145.8736  158.3411 C.ar    1  UNL1        0.0040
     27 C         140.7304  144.8754  159.3579 C.ar    1  UNL1        0.0758
     28 C         141.1624  145.0029  160.7886 C.3     1  UNL1        0.4187
     29 F         141.5945  145.1305  162.2194 F       1  UNL1       -0.1659
     30 F         142.3451  144.1234  160.5100 F       1  UNL1       -0.1659
     31 F         139.9798  145.8825  161.0673 F       1  UNL1       -0.1659
@<TRIPOS>BOND
     1    11    12    1
     2    12    13   ar
     3    13    14   ar
     4    14    15   ar
     5    15    16   ar
     6    16     7    1
     7     7     8    2
     8     7     9   am
     9     9     1    1
    10     1     2   ar
    11     2     3   ar
    12     3     4   ar
    13     4     5   ar
    14     5    18    1
    15    18    19   am
    16    19    20    2
    17    19    22    1
    18    22    23   ar
    19    23    24   ar
    20    24    25   ar
    21    25    26   ar
    22    26    27   ar
    23    27    28    1
    24    28    29    1
    25    28    30    1
    26    28    31    1
    27     5     6   ar
    28    16    17   ar
    29    17    12   ar
    30     6     1   ar
    31    27    22   ar
    32     9    10    1
    33    18    21    1
@<TRIPOS>MOLECULE
*****
 31 33 0 0 0
SMALL
GASTEIGER

@<TRIPOS>ATOM
      1 C         143.9017  142.7984  161.8541 C.ar    1  UNL1        0.0518
      2 C         144.4325  144.1076  162.3582 C.ar    1  UNL1        0.0148
      3 C         143.8332  144.7396  163.5793 C.ar    1  UNL1        0.0025
      4 C         142.7030  144.0625  164.2964 C.ar    1  UNL1        0.0148
      5 C         142.1722  142.7533  163.7923 C.ar    1  UNL1        0.0518
      6 C         142.7715  142.1213  162.5711 C.ar    1  UNL1        0.0293
      7 C         144.0896  142.6332  159.2681 C.2     1  UNL1        0.2495
      8 O         143.0789  143.7322  159.1244 O.2     1  UNL1       -0.2698
      9 N         144.5010  142.1663  160.6329 N.am    1  UNL1       -0.2803
     10 H         145.1644  141.4450  160.7271 H       1  UNL1        0.1552
     11 C         147.9327  142.3293  155.7840 C.3     1  UNL1        0.0310
     12 C         146.6105  141.8492  156.3048 C.ar    1  UNL1       -0.0217
     13 C         145.8876  140.7370  155.6045 C.ar    1  UNL1       -0.0043
     14 C         144.5654  140.2569  156.1253 C.ar    1  UNL1       -0.0002
     15 C         143.9661  140.8889  157.3465 C.ar    1  UNL1        0.0045
     16 C         144.6890  142.0011  158.0468 C.ar    1  UNL1        0.0534
     17 C         146.0112  142.4812  157.5260 C.ar    1  UNL1        0.0003
     18 N         141.0420  142.0761  164.5094 N.am    1  UNL1       -0.2804
     19 C         141.3126  140.8848  165.3797 C.2     1  UNL1        0.2495
     20 O         142.7134  140.3706  165.5330 O.2     1  UNL1       -0.2698
     21 H         140.1227  142.4136  164.4088 H       1  UNL1        0.1552
     22 C         140.1824  140.2076  166.0967 C.ar    1  UNL1        0.0576
     23 C         139.2540  139.3001  165.3453 C.ar    1  UNL1        0.0045
     24 C         138.1239  138.6229  166.0624 C.ar    1  UNL1        0.0001
     25 C         137.9221  138.8533  167.5308 C.ar    1  UNL1       -0.0001
     26 C         138.8504  139.7608  168.2822 C.ar    1  UNL1        0.0040
     27 C         139.9806  140.4380  167.5651 C.ar    1  UNL1        0.0758
     28 C         140.9090  141.3455  168.3164 C.3     1  UNL1        0.4187
     29 F         141.8374  142.2531  169.0678 F       1  UNL1       -0.1659
     30 F         140.0771  142.5278  167.9163 F       1  UNL1       -0.1659
     31 F         141.7409  140.1632  168.7165 F       1  UNL1       -0.1659
@<TRIPOS>BOND
     1    11    12    1
     2    12    13   ar
     3    13    14   ar
     4    14    15   ar
     5    15    16   ar
     6    16     7    1
     7     7     8    2
     8     7     9   am
     9     9     1    1
    10     1     2   ar
    11     2     3   ar
    12     3     4   ar
    13     4     5   ar
    14     5    18    1
    15    18    19   am
    16    19    20    2
    17    19    22    1
    18    22    23   ar
    19    23    24   ar
    20    24    25   ar
    21    25    26   ar
    22    26    27   ar
    23    27    28    1
    24    28    29    1
    25    28    30    1
    26    28    31    1
    27     5     6   ar
    28    16    17   ar
    29    17    12   ar
    30     6     1   ar
    31    27    22   ar
    32     9    10    1
    33    18    21    1
@<TRIPOS>MOLECULE
*****
 31 33 0 0 0
SMALL
GASTEIGER

@<TRIPOS>ATOM
      1 C         143.7774  140.0824  159.5917 C.ar    1  UNL1        0.0518
      2 C         143.9634  141.4352  158.9711 C.ar    1  UNL1        0.0148
      3 C         144.1666  142.6387  159.8430 C.ar    1  UNL1        0.0025
      4 C         144.1837  142.4894  161.3355 C.ar    1  UNL1        0.0148
      5 C         143.9977  141.1366  161.9560 C.ar    1  UNL1        0.0518
      6 C         143.7945  139.9331  161.0841 C.ar    1  UNL1        0.0293
      7 C         142.2245  138.6013  158.1271 C.2     1  UNL1        0.2495
      8 O         141.0780  139.5273  158.4062 O.2     1  UNL1       -0.2698
      9 N         143.5742  138.8788  158.7198 N.am    1  UNL1       -0.2803
     10 H         144.3267  138.2710  158.5366 H       1  UNL1        0.1552
     11 C         143.7075  133.8711  156.5693 C.3     1  UNL1        0.0310
     12 C         142.7629  135.0326  156.4763 C.ar    1  UNL1       -0.0217
     13 C         141.6151  134.9905  155.5116 C.ar    1  UNL1       -0.0043
     14 C         140.6705  136.1520  155.4186 C.ar    1  UNL1       -0.0002
     15 C         140.8736  137.3556  156.2904 C.ar    1  UNL1        0.0045
     16 C         142.0214  137.3976  157.2552 C.ar    1  UNL1        0.0534
     17 C         142.9660  136.2362  157.3481 C.ar    1  UNL1        0.0003
     18 N         144.0148  140.9873  163.4485 N.am    1  UNL1       -0.2804
     19 C         142.7576  141.2013  164.2381 C.2     1  UNL1        0.2495
     20 O         141.4831  141.5648  163.5353 O.2     1  UNL1       -0.2698
     21 H         144.8512  140.7487  163.9098 H       1  UNL1        0.1552
     22 C         142.7747  141.0520  165.7305 C.ar    1  UNL1        0.0576
     23 C         143.0640  142.2398  166.5999 C.ar    1  UNL1        0.0045
     24 C         143.0811  142.0904  168.0923 C.ar    1  UNL1        0.0001
     25 C         142.8089  140.7534  168.7155 C.ar    1  UNL1       -0.0001
     26 C         142.5195  139.5657  167.8461 C.ar    1  UNL1        0.0040
     27 C         142.5024  139.7150  166.3537 C.ar    1  UNL1        0.0758
     28 C         142.2131  138.5274  165.4844 C.3     1  UNL1        0.4187
     29 F         141.9237  137.3397  164.6150 F       1  UNL1       -0.1659
     30 F         140.7473  138.8396  165.5457 F       1  UNL1       -0.1659
     31 F         143.6789  138.2152  165.4231 F       1  UNL1       -0.1659
@<TRIPOS>BOND
     1    11    12    1
     2    12    13   ar
     3    13    14   ar
     4    14    15   ar
     5    15    16   ar
     6    16     7    1
     7     7     8    2
     8     7     9   am
     9     9     1    1
    10     1     2   ar
    11     2     3   ar
    12     3     4   ar
    13     4     5   ar
    14     5    18    1
    15    18    19   am
    16    19    20    2
    17    19    22    1
    18    22    23   ar
    19    23    24   ar
    20    24    25   ar
    21    25    26   ar
    22    26    27   ar
    23    27    28    1
    24    28    29    1
    25    28    30    1
    26    28    31    1
    27     5     6   ar
    28    16    17   ar
    29    17    12   ar
    30     6     1   ar
    31    27    22   ar
    32     9    10    1
    33    18    21    1
@<TRIPOS>MOLECULE
*****
 31 33 0 0 0
SMALL
GASTEIGER

@<TRIPOS>ATOM
      1 C         141.5440  143.2925  161.8130 C.ar    1  UNL1        0.0518
      2 C         140.9396  144.6623  161.7228 C.ar    1  UNL1        0.0148
      3 C         140.4360  145.3428  162.9611 C.ar    1  UNL1        0.0025
      4 C         140.5367  144.6535  164.2894 C.ar    1  UNL1        0.0148
      5 C         141.1412  143.2836  164.3796 C.ar    1  UNL1        0.0518
      6 C         141.6448  142.6031  163.1414 C.ar    1  UNL1        0.0293
      7 C         143.5033  142.6826  160.2194 C.2     1  UNL1        0.2495
      8 O         144.4553  143.4337  161.1024 O.2     1  UNL1       -0.2698
      9 N         142.0477  142.6119  160.5747 N.am    1  UNL1       -0.2803
     10 H         141.4229  142.1189  159.9952 H       1  UNL1        0.1552
     11 C         146.8988  142.4173  156.2951 C.3     1  UNL1        0.0310
     12 C         145.7047  141.8694  157.0190 C.ar    1  UNL1       -0.0217
     13 C         145.0144  140.6411  156.5048 C.ar    1  UNL1       -0.0043
     14 C         143.8203  140.0932  157.2287 C.ar    1  UNL1       -0.0002
     15 C         143.3166  140.7737  158.4669 C.ar    1  UNL1        0.0045
     16 C         144.0070  142.0020  158.9812 C.ar    1  UNL1        0.0534
     17 C         145.2010  142.5499  158.2572 C.ar    1  UNL1        0.0003
     18 N         141.2419  142.5943  165.7080 N.am    1  UNL1       -0.2804
     19 C         142.5870  142.2362  166.2671 C.2     1  UNL1        0.2495
     20 O         143.8314  142.5675  165.4977 O.2     1  UNL1       -0.2698
     21 H         140.4252  142.3768  166.2130 H       1  UNL1        0.1552
     22 C         142.6877  141.5468  167.5955 C.ar    1  UNL1        0.0576
     23 C         143.0103  142.3380  168.8284 C.ar    1  UNL1        0.0045
     24 C         143.1110  141.6486  170.1568 C.ar    1  UNL1        0.0001
     25 C         142.8893  140.1681  170.2522 C.ar    1  UNL1       -0.0001
     26 C         142.5667  139.3771  169.0193 C.ar    1  UNL1        0.0040
     27 C         142.4660  140.0664  167.6909 C.ar    1  UNL1        0.0758
     28 C         142.1435  139.2754  166.4580 C.3     1  UNL1        0.4187
     29 F         141.8210  138.4843  165.2250 F       1  UNL1       -0.1659
     30 F         143.6083  139.1106  166.1805 F       1  UNL1       -0.1659
     31 F         140.6786  139.4402  166.7354 F       1  UNL1       -0.1659
@<TRIPOS>BOND
     1    11    12    1
     2    12    13   ar
     3    13    14   ar
     4    14    15   ar
     5    15    16   ar
     6    16     7    1
     7     7     8    2
     8     7     9   am
     9     9     1    1
    10     1     2   ar
    11     2     3   ar
    12     3     4   ar
    13     4     5   ar
    14     5    18    1
    15    18    19   am
    16    19    20    2
    17    19    22    1
    18    22    23   ar
    19    23    24   ar
    20    24    25   ar
    21    25    26   ar
    22    26    27   ar
    23    27    28    1
    24    28    29    1
    25    28    30    1
    26    28    31    1
    27     5     6   ar
    28    16    17   ar
    29    17    12   ar
    30     6     1   ar
    31    27    22   ar
    32     9    10    1
    33    18    21    1
@<TRIPOS>MOLECULE
*****
 31 33 0 0 0
SMALL
GASTEIGER

@<TRIPOS>ATOM
      1 C         143.6047  139.9733  158.8340 C.ar    1  UNL1        0.0518
      2 C         144.1319  141.2334  158.2142 C.ar    1  UNL1        0.0148
      3 C         144.2431  142.4836  159.0355 C.ar    1  UNL1        0.0025
      4 C         143.8271  142.4737  160.4767 C.ar    1  UNL1        0.0148
      5 C         143.2999  141.2136  161.0964 C.ar    1  UNL1        0.0518
      6 C         143.1887  139.9634  160.2751 C.ar    1  UNL1        0.0293
      7 C         142.1429  138.1612  157.6810 C.2     1  UNL1        0.2495
      8 O         140.9034  138.8496  158.1707 O.2     1  UNL1       -0.2698
      9 N         143.4935  138.7231  158.0126 N.am    1  UNL1       -0.2803
     10 H         144.3070  138.2712  157.6912 H       1  UNL1        0.1552
     11 C         143.8770  133.4225  156.4412 C.3     1  UNL1        0.0310
     12 C         142.8987  134.5416  156.2398 C.ar    1  UNL1       -0.0217
     13 C         141.8093  134.4105  155.2171 C.ar    1  UNL1       -0.0043
     14 C         140.8311  135.5296  155.0157 C.ar    1  UNL1       -0.0002
     15 C         140.9422  136.7799  155.8370 C.ar    1  UNL1        0.0045
     16 C         142.0316  136.9110  156.8597 C.ar    1  UNL1        0.0534
     17 C         143.0099  135.7918  157.0611 C.ar    1  UNL1        0.0003
     18 N         142.8839  141.2037  162.5376 N.am    1  UNL1       -0.2804
     19 C         143.9127  141.0226  163.6140 C.2     1  UNL1        0.2495
     20 O         145.3576  140.8513  163.2493 O.2     1  UNL1       -0.2698
     21 H         141.9356  141.3161  162.7769 H       1  UNL1        0.1552
     22 C         143.4967  141.0127  165.0551 C.ar    1  UNL1        0.0576
     23 C         143.1394  139.7183  165.7237 C.ar    1  UNL1        0.0045
     24 C         142.7234  139.7083  167.1648 C.ar    1  UNL1        0.0001
     25 C         142.6646  140.9928  167.9373 C.ar    1  UNL1       -0.0001
     26 C         143.0219  142.2872  167.2687 C.ar    1  UNL1        0.0040
     27 C         143.4379  142.2971  165.8276 C.ar    1  UNL1        0.0758
     28 C         143.7951  143.5914  165.1590 C.3     1  UNL1        0.4187
     29 F         144.1525  144.8857  164.4903 F       1  UNL1       -0.1659
     30 F         145.2224  143.4184  165.5866 F       1  UNL1       -0.1659
     31 F         142.3679  143.7644  164.7313 F       1  UNL1       -0.1659
@<TRIPOS>BOND
     1    11    12    1
     2    12    13   ar
     3    13    14   ar
     4    14    15   ar
     5    15    16   ar
     6    16     7    1
     7     7     8    2
     8     7     9   am
     9     9     1    1
    10     1     2   ar
    11     2     3   ar
    12     3     4   ar
    13     4     5   ar
    14     5    18    1
    15    18    19   am
    16    19    20    2
    17    19    22    1
    18    22    23   ar
    19    23    24   ar
    20    24    25   ar
    21    25    26   ar
    22    26    27   ar
    23    27    28    1
    24    28    29    1
    25    28    30    1
    26    28    31    1
    27     5     6   ar
    28    16    17   ar
    29    17    12   ar
    30     6     1   ar
    31    27    22   ar
    32     9    10    1
    33    18    21    1
@<TRIPOS>MOLECULE
*****
 31 33 0 0 0
SMALL
GASTEIGER

@<TRIPOS>ATOM
      1 C         139.7329  139.5474  164.7035 C.ar    1  UNL1        0.0518
      2 C         139.0190  138.2442  164.4988 C.ar    1  UNL1        0.0148
      3 C         139.0455  137.5775  163.1554 C.ar    1  UNL1        0.0025
      4 C         139.7860  138.2140  162.0167 C.ar    1  UNL1        0.0148
      5 C         140.5000  139.5171  162.2214 C.ar    1  UNL1        0.0518
      6 C         140.4734  140.1839  163.5648 C.ar    1  UNL1        0.0293
      7 C         140.8270  139.9889  167.0183 C.2     1  UNL1        0.2495
      8 O         141.9741  139.0969  166.6463 O.2     1  UNL1       -0.2698
      9 N         139.7064  140.2142  166.0469 N.am    1  UNL1       -0.2803
     10 H         138.9535  140.7997  166.2911 H       1  UNL1        0.1552
     11 C         140.3106  144.2799  169.9028 C.3     1  UNL1        0.0310
     12 C         140.5423  142.8012  169.8039 C.ar    1  UNL1       -0.0217
     13 C         140.7474  141.9893  171.0484 C.ar    1  UNL1       -0.0043
     14 C         140.9790  140.5106  170.9495 C.ar    1  UNL1       -0.0002
     15 C         141.0056  139.8438  169.6062 C.ar    1  UNL1        0.0045
     16 C         140.8004  140.6557  168.3617 C.ar    1  UNL1        0.0534
     17 C         140.5688  142.1344  168.4606 C.ar    1  UNL1        0.0003
     18 N         141.2405  140.1536  161.0827 N.am    1  UNL1       -0.2804
     19 C         142.7322  140.0249  160.9929 C.2     1  UNL1        0.2495
     20 O         143.4835  139.2597  162.0417 O.2     1  UNL1       -0.2698
     21 H         140.7474  140.6558  160.3943 H       1  UNL1        0.1552
     22 C         143.4727  140.6613  159.8542 C.ar    1  UNL1        0.0576
     23 C         143.5447  139.9684  158.5257 C.ar    1  UNL1        0.0045
     24 C         144.2852  140.6049  157.3870 C.ar    1  UNL1        0.0001
     25 C         144.9536  141.9343  157.5768 C.ar    1  UNL1       -0.0001
     26 C         144.8816  142.6271  158.9052 C.ar    1  UNL1        0.0040
     27 C         144.1411  141.9907  160.0439 C.ar    1  UNL1        0.0758
     28 C         144.0691  142.6835  161.3723 C.3     1  UNL1        0.4187
     29 F         143.9970  143.3764  162.7008 F       1  UNL1       -0.1659
     30 F         145.3304  141.9939  161.8004 F       1  UNL1       -0.1659
     31 F         142.8077  143.3731  160.9442 F       1  UNL1       -0.1659
@<TRIPOS>BOND
     1    11    12    1
     2    12    13   ar
     3    13    14   ar
     4    14    15   ar
     5    15    16   ar
     6    16     7    1
     7     7     8    2
     8     7     9   am
     9     9     1    1
    10     1     2   ar
    11     2     3   ar
    12     3     4   ar
    13     4     5   ar
    14     5    18    1
    15    18    19   am
    16    19    20    2
    17    19    22    1
    18    22    23   ar
    19    23    24   ar
    20    24    25   ar
    21    25    26   ar
    22    26    27   ar
    23    27    28    1
    24    28    29    1
    25    28    30    1
    26    28    31    1
    27     5     6   ar
    28    16    17   ar
    29    17    12   ar
    30     6     1   ar
    31    27    22   ar
    32     9    10    1
    33    18    21    1
@<TRIPOS>MOLECULE
*****
 31 33 0 0 0
SMALL
GASTEIGER

@<TRIPOS>ATOM
      1 C         139.8384  138.0887  156.9688 C.ar    1  UNL1        0.0518
      2 C         139.5434  139.3724  156.2512 C.ar    1  UNL1        0.0148
      3 C         139.3118  140.6320  157.0321 C.ar    1  UNL1        0.0025
      4 C         139.3752  140.6078  158.5306 C.ar    1  UNL1        0.0148
      5 C         139.6702  139.3241  159.2481 C.ar    1  UNL1        0.0518
      6 C         139.9018  138.0645  158.4672 C.ar    1  UNL1        0.0293
      7 C         141.4622  136.2969  156.0185 C.2     1  UNL1        0.2495
      8 O         142.6228  137.0244  156.6299 O.2     1  UNL1       -0.2698
      9 N         140.0700  136.8291  156.1879 N.am    1  UNL1       -0.2803
     10 H         139.3083  136.3516  155.7866 H       1  UNL1        0.1552
     11 C         142.5145  131.2100  155.8920 C.3     1  UNL1        0.0310
     12 C         142.2199  132.4939  155.1744 C.ar    1  UNL1       -0.0217
     13 C         142.1570  132.5181  153.6759 C.ar    1  UNL1       -0.0043
     14 C         141.8625  133.8019  152.9583 C.ar    1  UNL1       -0.0002
     15 C         141.6309  135.0615  153.7391 C.ar    1  UNL1        0.0045
     16 C         141.6938  135.0373  155.2376 C.ar    1  UNL1        0.0534
     17 C         141.9883  133.7534  155.9552 C.ar    1  UNL1        0.0003
     18 N         139.7335  139.2999  160.7466 N.am    1  UNL1       -0.2804
     19 C         138.4679  139.2501  161.5501 C.2     1  UNL1        0.2495
     20 O         137.1388  139.2246  160.8551 O.2     1  UNL1       -0.2698
     21 H         140.6058  139.3166  161.2027 H       1  UNL1        0.1552
     22 C         138.5313  139.2259  163.0486 C.ar    1  UNL1        0.0576
     23 C         138.8192  137.9407  163.7664 C.ar    1  UNL1        0.0045
     24 C         138.8826  137.9165  165.2649 C.ar    1  UNL1        0.0001
     25 C         138.6580  139.1776  166.0455 C.ar    1  UNL1       -0.0001
     26 C         138.3701  140.4627  165.3276 C.ar    1  UNL1        0.0040
     27 C         138.3067  140.4869  163.8292 C.ar    1  UNL1        0.0758
     28 C         138.0188  141.7721  163.1113 C.3     1  UNL1        0.4187
     29 F         137.7309  143.0574  162.3935 F       1  UNL1       -0.1659
     30 F         139.4893  142.0570  163.0316 F       1  UNL1       -0.1659
     31 F         136.5483  141.4872  163.1911 F       1  UNL1       -0.1659
@<TRIPOS>BOND
     1    11    12    1
     2    12    13   ar
     3    13    14   ar
     4    14    15   ar
     5    15    16   ar
     6    16     7    1
     7     7     8    2
     8     7     9   am
     9     9     1    1
    10     1     2   ar
    11     2     3   ar
    12     3     4   ar
    13     4     5   ar
    14     5    18    1
    15    18    19   am
    16    19    20    2
    17    19    22    1
    18    22    23   ar
    19    23    24   ar
    20    24    25   ar
    21    25    26   ar
    22    26    27   ar
    23    27    28    1
    24    28    29    1
    25    28    30    1
    26    28    31    1
    27     5     6   ar
    28    16    17   ar
    29    17    12   ar
    30     6     1   ar
    31    27    22   ar
    32     9    10    1
    33    18    21    1
