@<TRIPOS>MOLECULE
*****
 39 43 0 0 0
SMALL
GASTEIGER

@<TRIPOS>ATOM
      1 C         142.4551  139.6673  162.0694 C.ar    1  UNL1        0.1200
      2 N         141.6713  138.8621  161.0757 N.ar    1  UNL1       -0.2309
      3 C         142.4760  138.7737  159.8129 C.ar    1  UNL1        0.0997
      4 C         143.7571  139.5242  160.0261 C.ar    1  UNL1        0.0961
      5 N         143.7442  140.0765  161.4207 N.ar    1  UNL1       -0.3123
      6 C         142.0707  138.0601  158.5573 C.ar    1  UNL1        0.0193
      7 C         140.8152  138.4589  157.8399 C.ar    1  UNL1        0.0038
      8 C         140.4099  137.7454  156.5843 C.ar    1  UNL1        0.0296
      9 C         141.2601  136.6328  156.0462 C.ar    1  UNL1        0.1440
     10 F         140.8548  135.9192  154.7906 F       1  UNL1       -0.2042
     11 C         142.5155  136.2339  156.7636 C.ar    1  UNL1        0.0988
     12 C         142.9208  136.9476  158.0192 C.ar    1  UNL1        0.0077
     13 C         143.3657  135.1214  156.2255 C.3     1  UNL1        0.4207
     14 F         144.2158  134.0090  155.6874 F       1  UNL1       -0.1658
     15 F         142.3940  134.1161  156.7687 F       1  UNL1       -0.1658
     16 F         144.3374  136.1268  155.6823 F       1  UNL1       -0.1658
     17 N         141.1655  140.6778  166.2605 N.pl3   1  UNL1       -0.2934
     18 C         140.7657  141.5643  165.1185 C.3     1  UNL1        0.0926
     19 C         141.1955  141.2275  163.7215 C.3     1  UNL1        0.0290
     20 C         142.0252  140.0041  163.4664 C.3     1  UNL1        0.0603
     21 C         142.4251  139.1176  164.6084 C.3     1  UNL1        0.0290
     22 C         141.9952  139.4544  166.0055 C.3     1  UNL1        0.0926
     23 C         139.5971  140.2719  168.2917 C.ar    1  UNL1        0.0406
     24 C         139.1673  140.6087  169.6887 C.ar    1  UNL1        0.1258
     25 N         138.0287  139.8660  170.3228 N.pl3   1  UNL1       -0.3428
     26 N         139.8760  141.6884  170.4517 N.ar    1  UNL1       -0.2097
     27 C         141.0145  142.4312  169.8176 C.ar    1  UNL1        0.2012
     28 N         141.4443  142.0943  168.4206 N.ar    1  UNL1       -0.2092
     29 C         140.7356  141.0146  167.6576 C.ar    1  UNL1        0.1320
     30 H         137.5636  139.1573  169.8220 H       1  UNL1        0.1437
     31 H         137.7466  140.0871  171.2397 H       1  UNL1        0.1437
     32 C         138.0452  139.5443  166.3392 C.3     1  UNL1        0.0052
     33 C         138.8884  139.1922  167.5287 C.3     1  UNL1        0.0320
     34 C         144.8298  140.8943  162.0552 C.3     1  UNL1        0.1245
     35 C         144.8753  142.3778  161.8382 C.3     1  UNL1        0.0969
     36 N         144.4163  143.3087  162.9212 N.3     1  UNL1       -0.2710
     37 C         144.2867  143.2185  164.4128 C.3     1  UNL1        0.0736
     38 C         143.7671  144.6250  164.4527 C.3     1  UNL1        0.0346
     39 C         143.8967  144.7152  162.9610 C.3     1  UNL1        0.0736
@<TRIPOS>BOND
     1    32    33    1
     2    33    23    1
     3    23    24   ar
     4    24    25    1
     5    24    26   ar
     6    26    27   ar
     7    27    28   ar
     8    28    29   ar
     9    29    17    1
    10    17    18    1
    11    18    19    1
    12    19    20    1
    13    20     1    1
    14     1     2   ar
    15     2     3   ar
    16     3     6    1
    17     6     7   ar
    18     7     8   ar
    19     8     9   ar
    20     9    10    1
    21     9    11   ar
    22    11    13    1
    23    13    14    1
    24    13    15    1
    25    13    16    1
    26    11    12   ar
    27     3     4   ar
    28     4     5   ar
    29     5    34    1
    30    34    35    1
    31    35    36    1
    32    36    37    1
    33    37    38    1
    34    38    39    1
    35    20    21    1
    36    21    22    1
    37    29    23   ar
    38    22    17    1
    39     5     1   ar
    40    39    36    1
    41    12     6   ar
    42    25    30    1
    43    25    31    1
@<TRIPOS>MOLECULE
*****
 39 43 0 0 0
SMALL
GASTEIGER

@<TRIPOS>ATOM
      1 C         142.2304  139.4305  162.3015 C.ar    1  UNL1        0.1200
      2 N         141.4828  138.7482  161.1945 N.ar    1  UNL1       -0.2309
      3 C         142.3919  138.6640  160.0044 C.ar    1  UNL1        0.0997
      4 C         143.7014  139.2943  160.3758 C.ar    1  UNL1        0.0961
      5 N         143.6016  139.7680  161.7955 N.ar    1  UNL1       -0.3123
      6 C         142.0513  138.0562  158.6760 C.ar    1  UNL1        0.0193
      7 C         140.8748  138.5659  157.8975 C.ar    1  UNL1        0.0038
      8 C         140.5342  137.9582  156.5692 C.ar    1  UNL1        0.0296
      9 C         141.3702  136.8406  156.0192 C.ar    1  UNL1        0.1440
     10 F         141.0297  136.2328  154.6909 F       1  UNL1       -0.2042
     11 C         142.5467  136.3309  156.7977 C.ar    1  UNL1        0.0988
     12 C         142.8873  136.9387  158.1261 C.ar    1  UNL1        0.0077
     13 C         143.3826  135.2134  156.2478 C.3     1  UNL1        0.4207
     14 F         144.2186  134.0959  155.6979 F       1  UNL1       -0.1658
     15 F         142.7904  134.2742  157.2563 F       1  UNL1       -0.1658
     16 F         143.9748  136.1527  155.2393 F       1  UNL1       -0.1658
     17 N         140.6390  140.3105  166.4177 N.pl3   1  UNL1       -0.2934
     18 C         141.7182  139.2849  166.2342 C.3     1  UNL1        0.0926
     19 C         142.2486  138.9916  164.8622 C.3     1  UNL1        0.0290
     20 C         141.6999  139.7239  163.6735 C.3     1  UNL1        0.0603
     21 C         140.6208  140.7494  163.8570 C.3     1  UNL1        0.0290
     22 C         140.0903  141.0427  165.2292 C.3     1  UNL1        0.0926
     23 C         140.6380  141.7743  168.5642 C.ar    1  UNL1        0.0406
     24 C         140.1075  142.0675  169.9363 C.ar    1  UNL1        0.1258
     25 N         140.6369  143.2381  170.7107 N.pl3   1  UNL1       -0.3428
     26 N         139.0477  141.1903  170.5339 N.ar    1  UNL1       -0.2097
     27 C         138.5183  140.0198  169.7596 C.ar    1  UNL1        0.2012
     28 N         139.0487  139.7266  168.3875 N.ar    1  UNL1       -0.2092
     29 C         140.1086  140.6038  167.7898 C.ar    1  UNL1        0.1320
     30 H         141.3325  143.8138  170.3185 H       1  UNL1        0.1437
     31 H         140.2887  143.4305  171.6113 H       1  UNL1        0.1437
     32 C         143.1467  142.3141  168.1583 C.3     1  UNL1        0.0052
     33 C         141.6978  142.6515  167.9665 C.3     1  UNL1        0.0320
     34 C         144.6830  140.4581  162.5728 C.3     1  UNL1        0.1245
     35 C         145.0393  141.8814  162.2610 C.3     1  UNL1        0.0969
     36 N         144.5388  142.9896  163.1393 N.3     1  UNL1       -0.2710
     37 C         144.0356  144.3832  162.9056 C.3     1  UNL1        0.0736
     38 C         143.8310  144.5568  164.3813 C.3     1  UNL1        0.0346
     39 C         144.3342  143.1632  164.6150 C.3     1  UNL1        0.0736
@<TRIPOS>BOND
     1    32    33    1
     2    33    23    1
     3    23    24   ar
     4    24    25    1
     5    24    26   ar
     6    26    27   ar
     7    27    28   ar
     8    28    29   ar
     9    29    17    1
    10    17    18    1
    11    18    19    1
    12    19    20    1
    13    20     1    1
    14     1     2   ar
    15     2     3   ar
    16     3     6    1
    17     6     7   ar
    18     7     8   ar
    19     8     9   ar
    20     9    10    1
    21     9    11   ar
    22    11    13    1
    23    13    14    1
    24    13    15    1
    25    13    16    1
    26    11    12   ar
    27     3     4   ar
    28     4     5   ar
    29     5    34    1
    30    34    35    1
    31    35    36    1
    32    36    37    1
    33    37    38    1
    34    38    39    1
    35    20    21    1
    36    21    22    1
    37    29    23   ar
    38    22    17    1
    39     5     1   ar
    40    39    36    1
    41    12     6   ar
    42    25    30    1
    43    25    31    1
@<TRIPOS>MOLECULE
*****
 39 43 0 0 0
SMALL
GASTEIGER

@<TRIPOS>ATOM
      1 C         141.9708  139.9229  160.8592 C.ar    1  UNL1        0.1200
      2 N         141.5200  138.6883  160.1365 N.ar    1  UNL1       -0.2309
      3 C         141.9713  138.7955  158.7100 C.ar    1  UNL1        0.0997
      4 C         142.7009  140.0964  158.5511 C.ar    1  UNL1        0.0961
      5 N         142.7006  140.7932  159.8794 N.ar    1  UNL1       -0.3123
      6 C         141.7345  137.7800  157.6316 C.ar    1  UNL1        0.0193
      7 C         140.5127  137.8755  156.7666 C.ar    1  UNL1        0.0038
      8 C         140.2759  136.8602  155.6883 C.ar    1  UNL1        0.0296
      9 C         141.2609  135.7491  155.4749 C.ar    1  UNL1        0.1440
     10 F         141.0241  134.7337  154.3967 F       1  UNL1       -0.2042
     11 C         142.4826  135.6535  156.3400 C.ar    1  UNL1        0.0988
     12 C         142.7194  136.6690  157.4183 C.ar    1  UNL1        0.0077
     13 C         143.4675  134.5425  156.1266 C.3     1  UNL1        0.4207
     14 F         144.4524  133.4315  155.9133 F       1  UNL1       -0.1658
     15 F         144.3433  135.4703  155.3379 F       1  UNL1       -0.1658
     16 F         142.5917  133.6147  156.9153 F       1  UNL1       -0.1658
     17 N         141.2585  140.8528  165.2041 N.pl3   1  UNL1       -0.2934
     18 C         140.4918  141.5872  164.1444 C.3     1  UNL1        0.0926
     19 C         140.7292  141.2772  162.6962 C.3     1  UNL1        0.0290
     20 C         141.7333  140.2329  162.3075 C.3     1  UNL1        0.0603
     21 C         142.5001  139.4985  163.3671 C.3     1  UNL1        0.0290
     22 C         142.2626  139.8085  164.8155 C.3     1  UNL1        0.0926
     23 C         140.0234  140.3632  167.4368 C.ar    1  UNL1        0.0406
     24 C         139.7860  140.6733  168.8850 C.ar    1  UNL1        0.1258
     25 N         138.7882  139.8736  169.6695 N.pl3   1  UNL1       -0.3428
     26 N         140.5462  141.7829  169.5489 N.ar    1  UNL1       -0.2097
     27 C         141.5439  142.5825  168.7646 C.ar    1  UNL1        0.2012
     28 N         141.7813  142.2724  167.3163 N.ar    1  UNL1       -0.2092
     29 C         141.0210  141.1628  166.6524 C.ar    1  UNL1        0.1320
     30 H         138.2893  139.1454  169.2337 H       1  UNL1        0.1437
     31 H         138.6324  140.0771  170.6200 H       1  UNL1        0.1437
     32 C         138.0412  139.5634  165.9599 C.3     1  UNL1        0.0052
     33 C         139.2631  139.2536  166.7729 C.3     1  UNL1        0.0320
     34 C         143.3211  142.1263  160.1759 C.3     1  UNL1        0.1245
     35 C         144.6632  142.1974  160.8419 C.3     1  UNL1        0.0969
     36 N         144.7550  142.2939  162.3359 N.3     1  UNL1       -0.2710
     37 C         144.0089  143.0456  163.3980 C.3     1  UNL1        0.0736
     38 C         144.8848  142.4304  164.4488 C.3     1  UNL1        0.0346
     39 C         145.6310  141.6786  163.3867 C.3     1  UNL1        0.0736
@<TRIPOS>BOND
     1    32    33    1
     2    33    23    1
     3    23    24   ar
     4    24    25    1
     5    24    26   ar
     6    26    27   ar
     7    27    28   ar
     8    28    29   ar
     9    29    17    1
    10    17    18    1
    11    18    19    1
    12    19    20    1
    13    20     1    1
    14     1     2   ar
    15     2     3   ar
    16     3     6    1
    17     6     7   ar
    18     7     8   ar
    19     8     9   ar
    20     9    10    1
    21     9    11   ar
    22    11    13    1
    23    13    14    1
    24    13    15    1
    25    13    16    1
    26    11    12   ar
    27     3     4   ar
    28     4     5   ar
    29     5    34    1
    30    34    35    1
    31    35    36    1
    32    36    37    1
    33    37    38    1
    34    38    39    1
    35    20    21    1
    36    21    22    1
    37    29    23   ar
    38    22    17    1
    39     5     1   ar
    40    39    36    1
    41    12     6   ar
    42    25    30    1
    43    25    31    1
@<TRIPOS>MOLECULE
*****
 39 43 0 0 0
SMALL
GASTEIGER

@<TRIPOS>ATOM
      1 C         140.8085  139.5339  163.2885 C.ar    1  UNL1        0.1200
      2 N         141.4315  139.9689  164.5818 N.ar    1  UNL1       -0.2309
      3 C         140.3954  139.8471  165.6595 C.ar    1  UNL1        0.0997
      4 C         139.1319  139.3368  165.0323 C.ar    1  UNL1        0.0961
      5 N         139.3873  139.1432  163.5669 N.ar    1  UNL1       -0.3123
      6 C         140.5887  140.1776  167.1098 C.ar    1  UNL1        0.0193
      7 C         139.4889  139.9080  168.0936 C.ar    1  UNL1        0.0038
      8 C         139.6821  140.2384  169.5438 C.ar    1  UNL1        0.0296
      9 C         140.9753  140.8385  170.0105 C.ar    1  UNL1        0.1440
     10 F         141.1687  141.1689  171.4608 F       1  UNL1       -0.2042
     11 C         142.0751  141.1081  169.0268 C.ar    1  UNL1        0.0988
     12 C         141.8818  140.7776  167.5765 C.ar    1  UNL1        0.0077
     13 C         143.3683  141.7081  169.4934 C.3     1  UNL1        0.4207
     14 F         144.6614  142.3082  169.9600 F       1  UNL1       -0.1658
     15 F         143.1699  142.8634  168.5574 F       1  UNL1       -0.1658
     16 F         143.5666  140.5529  170.4294 F       1  UNL1       -0.1658
     17 N         142.8455  139.4208  159.2775 N.pl3   1  UNL1       -0.2934
     18 C         141.8718  140.5172  159.5936 C.3     1  UNL1        0.0926
     19 C         141.1928  140.5549  160.9305 C.3     1  UNL1        0.0290
     20 C         141.4875  139.4962  161.9515 C.3     1  UNL1        0.0603
     21 C         142.4612  138.3998  161.6355 C.3     1  UNL1        0.0290
     22 C         143.1402  138.3621  160.2984 C.3     1  UNL1        0.0926
     23 C         143.1242  138.3546  156.9248 C.ar    1  UNL1        0.0406
     24 C         143.8032  138.3169  155.5878 C.ar    1  UNL1        0.1258
     25 N         143.4029  137.2883  154.5720 N.pl3   1  UNL1       -0.3428
     26 N         144.8824  139.3079  155.2665 N.ar    1  UNL1       -0.2097
     27 C         145.2827  140.3365  156.2822 C.ar    1  UNL1        0.2012
     28 N         144.6037  140.3741  157.6192 N.ar    1  UNL1       -0.2092
     29 C         143.5245  139.3832  157.9405 C.ar    1  UNL1        0.1320
     30 H         142.6946  136.6379  154.7828 H       1  UNL1        0.1437
     31 H         143.8486  137.2636  153.6945 H       1  UNL1        0.1437
     32 C         140.6070  137.7166  157.0061 C.3     1  UNL1        0.0052
     33 C         142.0450  137.3636  157.2460 C.3     1  UNL1        0.0320
     34 C         138.3955  138.6463  162.5573 C.3     1  UNL1        0.1245
     35 C         137.6507  139.6214  161.6946 C.3     1  UNL1        0.0969
     36 N         137.7154  141.0897  161.9944 N.3     1  UNL1       -0.2710
     37 C         138.1527  142.3085  161.2373 C.3     1  UNL1        0.0736
     38 C         137.8068  143.1662  162.4183 C.3     1  UNL1        0.0346
     39 C         137.3695  141.9474  163.1753 C.3     1  UNL1        0.0736
@<TRIPOS>BOND
     1    32    33    1
     2    33    23    1
     3    23    24   ar
     4    24    25    1
     5    24    26   ar
     6    26    27   ar
     7    27    28   ar
     8    28    29   ar
     9    29    17    1
    10    17    18    1
    11    18    19    1
    12    19    20    1
    13    20     1    1
    14     1     2   ar
    15     2     3   ar
    16     3     6    1
    17     6     7   ar
    18     7     8   ar
    19     8     9   ar
    20     9    10    1
    21     9    11   ar
    22    11    13    1
    23    13    14    1
    24    13    15    1
    25    13    16    1
    26    11    12   ar
    27     3     4   ar
    28     4     5   ar
    29     5    34    1
    30    34    35    1
    31    35    36    1
    32    36    37    1
    33    37    38    1
    34    38    39    1
    35    20    21    1
    36    21    22    1
    37    29    23   ar
    38    22    17    1
    39     5     1   ar
    40    39    36    1
    41    12     6   ar
    42    25    30    1
    43    25    31    1
@<TRIPOS>MOLECULE
*****
 39 43 0 0 0
SMALL
GASTEIGER

@<TRIPOS>ATOM
      1 C         141.5685  140.6633  163.4717 C.ar    1  UNL1        0.1200
      2 N         141.3074  141.2029  164.8468 N.ar    1  UNL1       -0.2309
      3 C         141.8782  140.2351  165.8405 C.ar    1  UNL1        0.0997
      4 C         142.4922  139.0974  165.0797 C.ar    1  UNL1        0.0961
      5 N         142.3007  139.3621  163.6157 N.ar    1  UNL1       -0.3123
      6 C         141.8416  140.3796  167.3331 C.ar    1  UNL1        0.0193
      7 C         142.5269  139.3668  168.2018 C.ar    1  UNL1        0.0038
      8 C         142.4903  139.5112  169.6942 C.ar    1  UNL1        0.0296
      9 C         141.7683  140.6686  170.3183 C.ar    1  UNL1        0.1440
     10 F         141.7317  140.8131  171.8108 F       1  UNL1       -0.2042
     11 C         141.0830  141.6814  169.4497 C.ar    1  UNL1        0.0988
     12 C         141.1196  141.5369  167.9571 C.ar    1  UNL1        0.0077
     13 C         140.3610  142.8388  170.0736 C.3     1  UNL1        0.4207
     14 F         139.6391  143.9961  170.6976 F       1  UNL1       -0.1658
     15 F         141.5739  143.6998  169.8799 F       1  UNL1       -0.1658
     16 F         139.1482  141.9777  170.2674 F       1  UNL1       -0.1658
     17 N         140.3662  142.6071  159.5954 N.pl3   1  UNL1       -0.2934
     18 C         141.7989  142.2320  159.8336 C.3     1  UNL1        0.0926
     19 C         142.1997  141.5840  161.1257 C.3     1  UNL1        0.0290
     20 C         141.1677  141.3113  162.1796 C.3     1  UNL1        0.0603
     21 C         139.7351  141.6864  161.9415 C.3     1  UNL1        0.0290
     22 C         139.3343  142.3344  160.6493 C.3     1  UNL1        0.0926
     23 C         140.2362  144.7134  158.0799 C.ar    1  UNL1        0.0406
     24 C         139.8354  145.3613  156.7878 C.ar    1  UNL1        0.1258
     25 N         140.1061  146.8198  156.5644 N.pl3   1  UNL1       -0.3428
     26 N         139.1641  144.5509  155.7190 N.ar    1  UNL1       -0.2097
     27 C         138.8934  143.0925  155.9423 C.ar    1  UNL1        0.2012
     28 N         139.2941  142.4446  157.2344 N.ar    1  UNL1       -0.2092
     29 C         139.9655  143.2551  158.3032 C.ar    1  UNL1        0.1320
     30 H         140.5468  147.3517  157.2659 H       1  UNL1        0.1437
     31 H         139.8431  147.2450  155.7163 H       1  UNL1        0.1437
     32 C         140.1884  145.8148  160.4325 C.3     1  UNL1        0.0052
     33 C         140.9076  145.5239  159.1487 C.3     1  UNL1        0.0320
     34 C         142.7607  138.4804  162.4928 C.3     1  UNL1        0.1245
     35 C         141.8054  137.5132  161.8589 C.3     1  UNL1        0.0969
     36 N         140.3278  137.7608  161.9332 N.3     1  UNL1       -0.2710
     37 C         139.2727  138.1834  160.9545 C.3     1  UNL1        0.0736
     38 C         138.2383  138.1109  162.0383 C.3     1  UNL1        0.0346
     39 C         139.2934  137.6883  163.0170 C.3     1  UNL1        0.0736
@<TRIPOS>BOND
     1    32    33    1
     2    33    23    1
     3    23    24   ar
     4    24    25    1
     5    24    26   ar
     6    26    27   ar
     7    27    28   ar
     8    28    29   ar
     9    29    17    1
    10    17    18    1
    11    18    19    1
    12    19    20    1
    13    20     1    1
    14     1     2   ar
    15     2     3   ar
    16     3     6    1
    17     6     7   ar
    18     7     8   ar
    19     8     9   ar
    20     9    10    1
    21     9    11   ar
    22    11    13    1
    23    13    14    1
    24    13    15    1
    25    13    16    1
    26    11    12   ar
    27     3     4   ar
    28     4     5   ar
    29     5    34    1
    30    34    35    1
    31    35    36    1
    32    36    37    1
    33    37    38    1
    34    38    39    1
    35    20    21    1
    36    21    22    1
    37    29    23   ar
    38    22    17    1
    39     5     1   ar
    40    39    36    1
    41    12     6   ar
    42    25    30    1
    43    25    31    1
@<TRIPOS>MOLECULE
*****
 39 43 0 0 0
SMALL
GASTEIGER

@<TRIPOS>ATOM
      1 C         139.8693  142.3345  162.3672 C.ar    1  UNL1        0.1200
      2 N         140.5802  143.2795  161.4444 N.ar    1  UNL1       -0.2309
      3 C         139.8453  143.2912  160.1369 C.ar    1  UNL1        0.0997
      4 C         138.6801  142.3535  160.2515 C.ar    1  UNL1        0.0961
      5 N         138.6950  141.7622  161.6300 N.ar    1  UNL1       -0.3123
      6 C         140.2113  144.0989  158.9270 C.ar    1  UNL1        0.0193
      7 C         141.4166  144.9912  158.9574 C.ar    1  UNL1        0.0038
      8 C         141.7826  145.7989  157.7477 C.ar    1  UNL1        0.0296
      9 C         140.9432  145.7143  156.5073 C.ar    1  UNL1        0.1440
     10 F         141.3091  146.5219  155.2975 F       1  UNL1       -0.2042
     11 C         139.7378  144.8220  156.4769 C.ar    1  UNL1        0.0988
     12 C         139.3719  144.0143  157.6868 C.ar    1  UNL1        0.0077
     13 C         138.8984  144.7374  155.2367 C.3     1  UNL1        0.4207
     14 F         138.0590  144.6529  153.9964 F       1  UNL1       -0.1658
     15 F         139.5593  143.4396  154.8779 F       1  UNL1       -0.1658
     16 F         138.2375  146.0353  155.5955 F       1  UNL1       -0.1658
     17 N         141.0518  141.3834  166.6036 N.pl3   1  UNL1       -0.2934
     18 C         140.1415  142.5417  166.3211 C.3     1  UNL1        0.0926
     19 C         139.7473  142.8587  164.9090 C.3     1  UNL1        0.0290
     20 C         140.2635  142.0175  163.7793 C.3     1  UNL1        0.0603
     21 C         141.1738  140.8592  164.0619 C.3     1  UNL1        0.0290
     22 C         141.5680  140.5422  165.4741 C.3     1  UNL1        0.0926
     23 C         140.4565  140.4288  168.9455 C.ar    1  UNL1        0.0406
     24 C         140.8507  140.1119  170.3576 C.ar    1  UNL1        0.1258
     25 N         139.8612  139.4743  171.2875 N.pl3   1  UNL1       -0.3428
     26 N         142.2344  140.4325  170.8400 N.ar    1  UNL1       -0.2097
     27 C         143.2239  141.0700  169.9103 C.ar    1  UNL1        0.2012
     28 N         142.8297  141.3870  168.4982 N.ar    1  UNL1       -0.2092
     29 C         141.4460  141.0664  168.0158 C.ar    1  UNL1        0.1320
     30 H         138.9531  139.2639  170.9709 H       1  UNL1        0.1437
     31 H         140.1200  139.2662  172.2143 H       1  UNL1        0.1437
     32 C         138.8799  139.1756  167.3043 C.3     1  UNL1        0.0052
     33 C         139.0729  140.1083  168.4632 C.3     1  UNL1        0.0320
     34 C         137.7087  140.7724  162.1754 C.3     1  UNL1        0.1245
     35 C         137.8297  139.3199  161.8211 C.3     1  UNL1        0.0969
     36 N         138.9080  138.4834  162.4435 N.3     1  UNL1       -0.2710
     37 C         139.1002  137.8199  163.7749 C.3     1  UNL1        0.0736
     38 C         140.4330  137.3004  163.3236 C.3     1  UNL1        0.0346
     39 C         140.2408  137.9639  161.9922 C.3     1  UNL1        0.0736
@<TRIPOS>BOND
     1    32    33    1
     2    33    23    1
     3    23    24   ar
     4    24    25    1
     5    24    26   ar
     6    26    27   ar
     7    27    28   ar
     8    28    29   ar
     9    29    17    1
    10    17    18    1
    11    18    19    1
    12    19    20    1
    13    20     1    1
    14     1     2   ar
    15     2     3   ar
    16     3     6    1
    17     6     7   ar
    18     7     8   ar
    19     8     9   ar
    20     9    10    1
    21     9    11   ar
    22    11    13    1
    23    13    14    1
    24    13    15    1
    25    13    16    1
    26    11    12   ar
    27     3     4   ar
    28     4     5   ar
    29     5    34    1
    30    34    35    1
    31    35    36    1
    32    36    37    1
    33    37    38    1
    34    38    39    1
    35    20    21    1
    36    21    22    1
    37    29    23   ar
    38    22    17    1
    39     5     1   ar
    40    39    36    1
    41    12     6   ar
    42    25    30    1
    43    25    31    1
@<TRIPOS>MOLECULE
*****
 39 43 0 0 0
SMALL
GASTEIGER

@<TRIPOS>ATOM
      1 C         142.4019  141.6696  163.0926 C.ar    1  UNL1        0.1200
      2 N         142.3179  141.0715  164.4656 N.ar    1  UNL1       -0.2309
      3 C         142.1930  142.1936  165.4532 C.ar    1  UNL1        0.0997
      4 C         142.1999  143.4853  164.6905 C.ar    1  UNL1        0.0961
      5 N         142.3290  143.1614  163.2316 N.ar    1  UNL1       -0.3123
      6 C         142.0810  142.0494  166.9420 C.ar    1  UNL1        0.0193
      7 C         143.2540  142.3767  167.8177 C.ar    1  UNL1        0.0038
      8 C         143.1421  142.2326  169.3064 C.ar    1  UNL1        0.0296
      9 C         141.8569  141.7610  169.9197 C.ar    1  UNL1        0.1440
     10 F         141.7448  141.6168  171.4085 F       1  UNL1       -0.2042
     11 C         140.6838  141.4336  169.0441 C.ar    1  UNL1        0.0988
     12 C         140.7959  141.5778  167.5552 C.ar    1  UNL1        0.0077
     13 C         139.3987  140.9620  169.6573 C.3     1  UNL1        0.4207
     14 F         138.1136  140.4905  170.2706 F       1  UNL1       -0.1658
     15 F         139.5606  139.6354  168.9764 F       1  UNL1       -0.1658
     16 F         139.2368  142.2887  170.3383 F       1  UNL1       -0.1658
     17 N         142.8024  139.3890  159.2340 N.pl3   1  UNL1       -0.2934
     18 C         143.9700  139.4899  160.1703 C.3     1  UNL1        0.0926
     19 C         143.8365  140.2501  161.4565 C.3     1  UNL1        0.0290
     20 C         142.5354  140.9094  161.8064 C.3     1  UNL1        0.0603
     21 C         141.3678  140.8086  160.8702 C.3     1  UNL1        0.0290
     22 C         141.5014  140.0483  159.5839 C.3     1  UNL1        0.0926
     23 C         143.4091  139.3288  156.7085 C.ar    1  UNL1        0.0406
     24 C         143.5427  138.5686  155.4224 C.ar    1  UNL1        0.1258
     25 N         144.0159  139.2687  154.1829 N.pl3   1  UNL1       -0.3428
     26 N         143.2030  137.1083  155.3756 N.ar    1  UNL1       -0.2097
     27 C         142.7298  136.4083  156.6149 C.ar    1  UNL1        0.2012
     28 N         142.5963  137.1685  157.9010 N.ar    1  UNL1       -0.2092
     29 C         142.9360  138.6288  157.9478 C.ar    1  UNL1        0.1320
     30 H         144.2388  140.2271  154.2136 H       1  UNL1        0.1437
     31 H         144.1035  138.7697  153.3388 H       1  UNL1        0.1437
     32 C         145.1544  141.2232  157.0483 C.3     1  UNL1        0.0052
     33 C         143.7488  140.7891  156.7553 C.3     1  UNL1        0.0320
     34 C         142.3768  144.1549  162.1088 C.3     1  UNL1        0.1245
     35 C         141.1028  144.7012  161.5360 C.3     1  UNL1        0.0969
     36 N         139.7835  144.3098  162.1328 N.3     1  UNL1       -0.2710
     37 C         138.7613  143.2507  161.8443 C.3     1  UNL1        0.0736
     38 C         137.9178  143.7563  162.9769 C.3     1  UNL1        0.0346
     39 C         138.9400  144.8154  163.2654 C.3     1  UNL1        0.0736
@<TRIPOS>BOND
     1    32    33    1
     2    33    23    1
     3    23    24   ar
     4    24    25    1
     5    24    26   ar
     6    26    27   ar
     7    27    28   ar
     8    28    29   ar
     9    29    17    1
    10    17    18    1
    11    18    19    1
    12    19    20    1
    13    20     1    1
    14     1     2   ar
    15     2     3   ar
    16     3     6    1
    17     6     7   ar
    18     7     8   ar
    19     8     9   ar
    20     9    10    1
    21     9    11   ar
    22    11    13    1
    23    13    14    1
    24    13    15    1
    25    13    16    1
    26    11    12   ar
    27     3     4   ar
    28     4     5   ar
    29     5    34    1
    30    34    35    1
    31    35    36    1
    32    36    37    1
    33    37    38    1
    34    38    39    1
    35    20    21    1
    36    21    22    1
    37    29    23   ar
    38    22    17    1
    39     5     1   ar
    40    39    36    1
    41    12     6   ar
    42    25    30    1
    43    25    31    1
@<TRIPOS>MOLECULE
*****
 39 43 0 0 0
SMALL
GASTEIGER

@<TRIPOS>ATOM
      1 C         141.0987  140.6411  162.7420 C.ar    1  UNL1        0.1200
      2 N         141.2060  140.1361  164.1503 N.ar    1  UNL1       -0.2309
      3 C         140.6640  141.1943  165.0648 C.ar    1  UNL1        0.0997
      4 C         140.2216  142.3534  164.2216 C.ar    1  UNL1        0.0961
      5 N         140.4902  142.0115  162.7860 N.ar    1  UNL1       -0.3123
      6 C         140.5792  141.1086  166.5599 C.ar    1  UNL1        0.0193
      7 C         139.5972  140.1747  167.2032 C.ar    1  UNL1        0.0038
      8 C         139.5124  140.0890  168.6982 C.ar    1  UNL1        0.0296
      9 C         140.4095  140.9371  169.5503 C.ar    1  UNL1        0.1440
     10 F         140.3248  140.8514  171.0453 F       1  UNL1       -0.2042
     11 C         141.3915  141.8710  168.9071 C.ar    1  UNL1        0.0988
     12 C         141.4763  141.9567  167.4119 C.ar    1  UNL1        0.0077
     13 C         142.2886  142.7191  169.7590 C.3     1  UNL1        0.4207
     14 F         143.1857  143.5673  170.6110 F       1  UNL1       -0.1658
     15 F         143.3373  141.6473  169.7217 F       1  UNL1       -0.1658
     16 F         141.2398  143.7909  169.7963 F       1  UNL1       -0.1658
     17 N         142.3773  138.4327  159.0355 N.pl3   1  UNL1       -0.2934
     18 C         140.9198  138.6596  159.3081 C.3     1  UNL1        0.0926
     19 C         140.4936  139.3958  160.5435 C.3     1  UNL1        0.0290
     20 C         141.5249  139.9050  161.5065 C.3     1  UNL1        0.0603
     21 C         142.9823  139.6780  161.2339 C.3     1  UNL1        0.0290
     22 C         143.4085  138.9419  159.9984 C.3     1  UNL1        0.0926
     23 C         143.1520  138.4583  156.5557 C.ar    1  UNL1        0.0406
     24 C         143.5782  137.7222  155.3203 C.ar    1  UNL1        0.1258
     25 N         143.9268  138.4840  154.0760 N.pl3   1  UNL1       -0.3428
     26 N         143.6558  136.2242  155.3290 N.ar    1  UNL1       -0.2097
     27 C         143.3072  135.4624  156.5733 C.ar    1  UNL1        0.2012
     28 N         142.8811  136.1986  157.8087 N.ar    1  UNL1       -0.2092
     29 C         142.8035  137.6965  157.8000 C.ar    1  UNL1        0.1320
     30 H         143.8759  139.4671  154.0702 H       1  UNL1        0.1437
     31 H         144.2065  138.0008  153.2651 H       1  UNL1        0.1437
     32 C         141.7873  140.6385  156.1896 C.3     1  UNL1        0.0052
     33 C         143.0744  139.9563  156.5470 C.3     1  UNL1        0.0320
     34 C         140.2012  142.8863  161.6024 C.3     1  UNL1        0.1245
     35 C         140.8948  144.2087  161.4599 C.3     1  UNL1        0.0969
     36 N         142.0511  144.5492  162.3526 N.3     1  UNL1       -0.2710
     37 C         143.5067  144.1890  162.3867 C.3     1  UNL1        0.0736
     38 C         143.6863  145.0308  163.6151 C.3     1  UNL1        0.0346
     39 C         142.2306  145.3911  163.5810 C.3     1  UNL1        0.0736
@<TRIPOS>BOND
     1    32    33    1
     2    33    23    1
     3    23    24   ar
     4    24    25    1
     5    24    26   ar
     6    26    27   ar
     7    27    28   ar
     8    28    29   ar
     9    29    17    1
    10    17    18    1
    11    18    19    1
    12    19    20    1
    13    20     1    1
    14     1     2   ar
    15     2     3   ar
    16     3     6    1
    17     6     7   ar
    18     7     8   ar
    19     8     9   ar
    20     9    10    1
    21     9    11   ar
    22    11    13    1
    23    13    14    1
    24    13    15    1
    25    13    16    1
    26    11    12   ar
    27     3     4   ar
    28     4     5   ar
    29     5    34    1
    30    34    35    1
    31    35    36    1
    32    36    37    1
    33    37    38    1
    34    38    39    1
    35    20    21    1
    36    21    22    1
    37    29    23   ar
    38    22    17    1
    39     5     1   ar
    40    39    36    1
    41    12     6   ar
    42    25    30    1
    43    25    31    1
@<TRIPOS>MOLECULE
*****
 39 43 0 0 0
SMALL
GASTEIGER

@<TRIPOS>ATOM
      1 C         141.4110  140.4698  163.0144 C.ar    1  UNL1        0.1200
      2 N         142.1117  140.5394  164.3388 N.ar    1  UNL1       -0.2309
      3 C         141.0673  140.5630  165.4151 C.ar    1  UNL1        0.0997
      4 C         139.7209  140.5080  164.7559 C.ar    1  UNL1        0.0961
      5 N         139.9334  140.4503  163.2722 N.ar    1  UNL1       -0.3123
      6 C         141.3240  140.6299  166.8915 C.ar    1  UNL1        0.0193
      7 C         142.3216  139.7041  167.5220 C.ar    1  UNL1        0.0038
      8 C         142.5783  139.7710  168.9983 C.ar    1  UNL1        0.0296
      9 C         141.8374  140.7638  169.8442 C.ar    1  UNL1        0.1440
     10 F         142.0941  140.8307  171.3205 F       1  UNL1       -0.2042
     11 C         140.8397  141.6896  169.2137 C.ar    1  UNL1        0.0988
     12 C         140.5830  141.6227  167.7373 C.ar    1  UNL1        0.0077
     13 C         140.0988  142.6823  170.0595 C.3     1  UNL1        0.4207
     14 F         139.3579  143.6751  170.9054 F       1  UNL1       -0.1658
     15 F         141.2151  143.6681  169.8805 F       1  UNL1       -0.1658
     16 F         138.9825  141.6966  170.2386 F       1  UNL1       -0.1658
     17 N         143.3935  140.3417  158.9766 N.pl3   1  UNL1       -0.2934
     18 C         142.3102  141.3429  159.2488 C.3     1  UNL1        0.0926
     19 C         141.6494  141.3856  160.5947 C.3     1  UNL1        0.0290
     20 C         142.0718  140.4271  161.6685 C.3     1  UNL1        0.0603
     21 C         143.1551  139.4259  161.3962 C.3     1  UNL1        0.0290
     22 C         143.8159  139.3832  160.0503 C.3     1  UNL1        0.0926
     23 C         143.5739  139.3319  156.5896 C.ar    1  UNL1        0.0406
     24 C         144.2347  139.2893  155.2437 C.ar    1  UNL1        0.1258
     25 N         143.7543  138.3221  154.2026 N.pl3   1  UNL1       -0.3428
     26 N         145.3759  140.2138  154.9389 N.ar    1  UNL1       -0.2097
     27 C         145.8563  141.1809  155.9799 C.ar    1  UNL1        0.2012
     28 N         145.1955  141.2235  157.3258 N.ar    1  UNL1       -0.2092
     29 C         144.0543  140.2990  157.6306 C.ar    1  UNL1        0.1320
     30 H         143.0053  137.7153  154.4026 H       1  UNL1        0.1437
     31 H         144.1880  138.2941  153.3192 H       1  UNL1        0.1437
     32 C         142.7046  137.0207  157.3974 C.3     1  UNL1        0.0052
     33 C         142.4327  138.4074  156.8944 C.3     1  UNL1        0.0320
     34 C         138.8573  140.3847  162.2293 C.3     1  UNL1        0.1245
     35 C         137.9913  141.5815  161.9689 C.3     1  UNL1        0.0969
     36 N         138.4014  142.9300  162.4818 N.3     1  UNL1       -0.2710
     37 C         137.8826  143.8686  163.5305 C.3     1  UNL1        0.0736
     38 C         138.9814  144.8371  163.2073 C.3     1  UNL1        0.0346
     39 C         139.5002  143.8985  162.1586 C.3     1  UNL1        0.0736
@<TRIPOS>BOND
     1    32    33    1
     2    33    23    1
     3    23    24   ar
     4    24    25    1
     5    24    26   ar
     6    26    27   ar
     7    27    28   ar
     8    28    29   ar
     9    29    17    1
    10    17    18    1
    11    18    19    1
    12    19    20    1
    13    20     1    1
    14     1     2   ar
    15     2     3   ar
    16     3     6    1
    17     6     7   ar
    18     7     8   ar
    19     8     9   ar
    20     9    10    1
    21     9    11   ar
    22    11    13    1
    23    13    14    1
    24    13    15    1
    25    13    16    1
    26    11    12   ar
    27     3     4   ar
    28     4     5   ar
    29     5    34    1
    30    34    35    1
    31    35    36    1
    32    36    37    1
    33    37    38    1
    34    38    39    1
    35    20    21    1
    36    21    22    1
    37    29    23   ar
    38    22    17    1
    39     5     1   ar
    40    39    36    1
    41    12     6   ar
    42    25    30    1
    43    25    31    1
