@<TRIPOS>MOLECULE
*****
 31 34 0 0 0
SMALL
GASTEIGER

@<TRIPOS>ATOM
      1 C         141.5446  141.9056  166.1647 C.2     1  UNL1        0.0020
      2 C         141.0240  142.4967  167.4413 C.2     1  UNL1        0.0130
      3 C         141.2638  141.7951  168.7452 C.3     1  UNL1        0.1542
      4 C         140.5034  143.0878  168.7178 C.3     1  UNL1        0.0614
      5 C         139.9827  143.6789  169.9943 C.3     1  UNL1        0.0725
      6 N         140.2225  142.9773  171.2983 N.3     1  UNL1       -0.2972
      7 C         140.9829  141.6846  171.3257 C.3     1  UNL1        0.0725
      8 C         141.5035  141.0936  170.0492 C.3     1  UNL1        0.0614
      9 O         142.0242  140.5024  168.7726 O.3     1  UNL1       -0.4785
     10 C         142.5448  139.9113  167.4961 C.ar    1  UNL1        0.1386
     11 C         143.3053  138.6186  167.5235 C.ar    1  UNL1        0.0369
     12 C         143.8259  138.0275  166.2470 C.ar    1  UNL1        0.0031
     13 C         143.5861  138.7291  164.9430 C.ar    1  UNL1        0.0002
     14 C         142.8257  140.0218  164.9156 C.ar    1  UNL1        0.0030
     15 C         142.3050  140.6129  166.1922 C.ar    1  UNL1        0.0338
     16 H         139.3059  142.7884  171.7039 H       1  UNL1        0.1233
     17 C         140.8253  144.0103  162.2528 C.ar    1  UNL1        0.0536
     18 C         142.0271  144.3566  163.0809 C.ar    1  UNL1        0.0045
     19 C         142.2669  143.6550  164.3849 C.ar    1  UNL1        0.0001
     20 C         141.3049  142.6071  164.8608 C.ar    1  UNL1       -0.0001
     21 C         140.1030  142.2608  164.0327 C.ar    1  UNL1        0.0001
     22 C         139.8632  142.9624  162.7287 C.ar    1  UNL1        0.0045
     23 N         141.1694  144.1604  159.6821 N.am    1  UNL1       -0.2793
     24 C         140.5855  144.7119  160.9489 C.2     1  UNL1        0.2489
     25 O         139.7618  145.9650  160.9118 O.2     1  UNL1       -0.2699
     26 C         141.8744  145.9322  157.9175 C.3     1  UNL1        0.0215
     27 C         140.9297  144.8620  158.3781 C.3     1  UNL1        0.0757
     28 C         139.7452  144.4934  157.5348 C.3     1  UNL1        0.0215
     29 C         141.9932  142.9073  159.7191 C.3     1  UNL1        0.0757
     30 C         143.4791  142.9918  159.9059 C.3     1  UNL1        0.0215
     31 C         141.3309  141.5698  159.5694 C.3     1  UNL1        0.0215
@<TRIPOS>BOND
     1    26    27    1
     2    27    28    1
     3    27    23    1
     4    23    24   am
     5    24    25    2
     6    24    17    1
     7    17    18   ar
     8    18    19   ar
     9    19    20   ar
    10    20     1    1
    11     1     2    2
    12     2     3    1
    13     3     4    1
    14     4     5    1
    15     5     6    1
    16     6     7    1
    17     7     8    1
    18     3     9    1
    19     9    10    1
    20    10    11   ar
    21    11    12   ar
    22    12    13   ar
    23    13    14   ar
    24    14    15   ar
    25    20    21   ar
    26    21    22   ar
    27    23    29    1
    28    29    30    1
    29    29    31    1
    30    22    17   ar
    31    15     1    1
    32     8     3    1
    33    15    10   ar
    34     6    16    1
@<TRIPOS>MOLECULE
*****
 31 34 0 0 0
SMALL
GASTEIGER

@<TRIPOS>ATOM
      1 C         141.4166  141.0798  166.3168 C.2     1  UNL1        0.0020
      2 C         142.0608  141.6762  167.5331 C.2     1  UNL1        0.0130
      3 C         141.4624  141.4441  168.8888 C.3     1  UNL1        0.1542
      4 C         142.7050  142.2726  168.7493 C.3     1  UNL1        0.0614
      5 C         143.3492  142.8689  169.9656 C.3     1  UNL1        0.0725
      6 N         142.7508  142.6368  171.3213 N.3     1  UNL1       -0.2972
      7 C         141.5082  141.8083  171.4608 C.3     1  UNL1        0.0725
      8 C         140.8640  141.2120  170.2445 C.3     1  UNL1        0.0614
      9 O         140.2197  140.6156  169.0282 O.3     1  UNL1       -0.4785
     10 C         139.5755  140.0192  167.8120 C.ar    1  UNL1        0.1386
     11 C         138.3329  139.1907  167.9514 C.ar    1  UNL1        0.0369
     12 C         137.6886  138.5944  166.7352 C.ar    1  UNL1        0.0031
     13 C         138.2871  138.8265  165.3794 C.ar    1  UNL1        0.0002
     14 C         139.5297  139.6549  165.2400 C.ar    1  UNL1        0.0030
     15 C         140.1739  140.2514  166.4563 C.ar    1  UNL1        0.0338
     16 H         142.5375  143.5553  171.7102 H       1  UNL1        0.1233
     17 C         143.2118  141.7762  162.2496 C.ar    1  UNL1        0.0536
     18 C         142.2228  142.7546  162.8104 C.ar    1  UNL1        0.0045
     19 C         141.6244  142.5225  164.1661 C.ar    1  UNL1        0.0001
     20 C         142.0150  141.3119  164.9610 C.ar    1  UNL1       -0.0001
     21 C         143.0039  140.3334  164.4002 C.ar    1  UNL1        0.0001
     22 C         143.6024  140.5655  163.0445 C.ar    1  UNL1        0.0045
     23 N         143.0954  141.5270  159.6661 N.am    1  UNL1       -0.2793
     24 C         143.8102  142.0083  160.8938 C.2     1  UNL1        0.2489
     25 O         145.1235  142.7218  160.7658 O.2     1  UNL1       -0.2699
     26 C         144.4647  140.6647  157.6335 C.3     1  UNL1        0.0215
     27 C         143.6938  141.7591  158.3104 C.3     1  UNL1        0.0757
     28 C         143.5213  143.0855  157.6315 C.3     1  UNL1        0.0215
     29 C         141.7821  140.8135  159.7941 C.3     1  UNL1        0.0757
     30 C         141.7524  139.3272  159.9944 C.3     1  UNL1        0.0215
     31 C         140.4986  141.5863  159.7218 C.3     1  UNL1        0.0215
@<TRIPOS>BOND
     1    26    27    1
     2    27    28    1
     3    27    23    1
     4    23    24   am
     5    24    25    2
     6    24    17    1
     7    17    18   ar
     8    18    19   ar
     9    19    20   ar
    10    20     1    1
    11     1     2    2
    12     2     3    1
    13     3     4    1
    14     4     5    1
    15     5     6    1
    16     6     7    1
    17     7     8    1
    18     3     9    1
    19     9    10    1
    20    10    11   ar
    21    11    12   ar
    22    12    13   ar
    23    13    14   ar
    24    14    15   ar
    25    20    21   ar
    26    21    22   ar
    27    23    29    1
    28    29    30    1
    29    29    31    1
    30    22    17   ar
    31    15     1    1
    32     8     3    1
    33    15    10   ar
    34     6    16    1
@<TRIPOS>MOLECULE
*****
 31 34 0 0 0
SMALL
GASTEIGER

@<TRIPOS>ATOM
      1 C         139.8743  141.8719  165.6048 C.2     1  UNL1        0.0020
      2 C         140.1965  142.4445  166.9534 C.2     1  UNL1        0.0130
      3 C         140.0922  141.5843  168.1777 C.3     1  UNL1        0.1542
      4 C         140.5187  143.0169  168.3018 C.3     1  UNL1        0.0614
      5 C         140.8408  143.5894  169.6503 C.3     1  UNL1        0.0725
      6 N         140.7365  142.7292  170.8747 N.3     1  UNL1       -0.2972
      7 C         140.3100  141.2965  170.7506 C.3     1  UNL1        0.0725
      8 C         139.9878  140.7240  169.4021 C.3     1  UNL1        0.0614
      9 O         139.6656  140.1515  168.0536 O.3     1  UNL1       -0.4785
     10 C         139.3435  139.5790  166.7051 C.ar    1  UNL1        0.1386
     11 C         138.9169  138.1463  166.5810 C.ar    1  UNL1        0.0369
     12 C         138.5948  137.5738  165.2325 C.ar    1  UNL1        0.0031
     13 C         138.6991  138.4340  164.0081 C.ar    1  UNL1        0.0002
     14 C         139.1256  139.8667  164.1322 C.ar    1  UNL1        0.0030
     15 C         139.4478  140.4393  165.4807 C.ar    1  UNL1        0.0338
     16 H         140.0676  143.1827  171.4970 H       1  UNL1        0.1233
     17 C         140.1874  144.4526  161.9317 C.ar    1  UNL1        0.0536
     18 C         141.4001  144.2029  162.7784 C.ar    1  UNL1        0.0045
     19 C         141.2957  143.3427  164.0028 C.ar    1  UNL1        0.0001
     20 C         139.9787  142.7322  164.3804 C.ar    1  UNL1       -0.0001
     21 C         138.7659  142.9818  163.5337 C.ar    1  UNL1        0.0001
     22 C         138.8703  143.8421  162.3093 C.ar    1  UNL1        0.0045
     23 N         140.8218  144.7358  159.4282 N.am    1  UNL1       -0.2793
     24 C         140.2918  145.3128  160.7073 C.2     1  UNL1        0.2489
     25 O         139.8660  146.7502  160.7620 O.2     1  UNL1       -0.2699
     26 C         142.2700  146.0609  157.7261 C.3     1  UNL1        0.0215
     27 C         140.9262  145.5960  158.2038 C.3     1  UNL1        0.0757
     28 C         139.6868  145.9914  157.4572 C.3     1  UNL1        0.0215
     29 C         141.2476  143.2985  159.3735 C.3     1  UNL1        0.0757
     30 C         140.2452  142.2313  159.0476 C.3     1  UNL1        0.0215
     31 C         142.6757  142.9285  159.6447 C.3     1  UNL1        0.0215
@<TRIPOS>BOND
     1    26    27    1
     2    27    28    1
     3    27    23    1
     4    23    24   am
     5    24    25    2
     6    24    17    1
     7    17    18   ar
     8    18    19   ar
     9    19    20   ar
    10    20     1    1
    11     1     2    2
    12     2     3    1
    13     3     4    1
    14     4     5    1
    15     5     6    1
    16     6     7    1
    17     7     8    1
    18     3     9    1
    19     9    10    1
    20    10    11   ar
    21    11    12   ar
    22    12    13   ar
    23    13    14   ar
    24    14    15   ar
    25    20    21   ar
    26    21    22   ar
    27    23    29    1
    28    29    30    1
    29    29    31    1
    30    22    17   ar
    31    15     1    1
    32     8     3    1
    33    15    10   ar
    34     6    16    1
@<TRIPOS>MOLECULE
*****
 31 34 0 0 0
SMALL
GASTEIGER

@<TRIPOS>ATOM
      1 C         140.3855  142.3852  161.4234 C.2     1  UNL1        0.0020
      2 C         141.8616  142.1191  161.4454 C.2     1  UNL1        0.0130
      3 C         142.6877  142.5700  162.6134 C.3     1  UNL1        0.1542
      4 C         143.3376  141.8530  161.4674 C.3     1  UNL1        0.0614
      5 C         144.8136  141.5869  161.4894 C.3     1  UNL1        0.0725
      6 N         145.6397  142.0378  162.6574 N.3     1  UNL1       -0.2972
      7 C         144.9897  142.7549  163.8034 C.3     1  UNL1        0.0725
      8 C         143.5137  143.0210  163.7814 C.3     1  UNL1        0.0614
      9 O         142.0376  143.2871  163.7594 O.3     1  UNL1       -0.4785
     10 C         140.5616  143.5533  163.7374 C.ar    1  UNL1        0.1386
     11 C         139.9116  144.2703  164.8835 C.ar    1  UNL1        0.0369
     12 C         138.4356  144.5365  164.8615 C.ar    1  UNL1        0.0031
     13 C         137.6095  144.0855  163.6935 C.ar    1  UNL1        0.0002
     14 C         138.2595  143.3685  162.5475 C.ar    1  UNL1        0.0030
     15 C         139.7356  143.1023  162.5694 C.ar    1  UNL1        0.0338
     16 H         146.3563  142.6624  162.2875 H       1  UNL1        0.1233
     17 C         137.9072  141.0324  157.9194 C.ar    1  UNL1        0.0536
     18 C         138.3884  142.4511  157.9945 C.ar    1  UNL1        0.0045
     19 C         139.2145  142.9020  159.1625 C.ar    1  UNL1        0.0001
     20 C         139.5594  141.9343  160.2554 C.ar    1  UNL1       -0.0001
     21 C         139.0782  140.5155  160.1804 C.ar    1  UNL1        0.0001
     22 C         138.2521  140.0646  159.0124 C.ar    1  UNL1        0.0045
     23 N         137.7523  140.0894  155.5035 N.am    1  UNL1       -0.2793
     24 C         137.0811  140.5815  156.7514 C.2     1  UNL1        0.2489
     25 O         135.5838  140.6226  156.8314 O.2     1  UNL1       -0.2699
     26 C         136.6074  138.1833  154.1597 C.3     1  UNL1        0.0215
     27 C         136.9262  139.6384  154.3355 C.3     1  UNL1        0.0757
     28 C         136.4190  140.6426  153.3434 C.3     1  UNL1        0.0215
     29 C         139.2497  140.0483  155.4235 C.3     1  UNL1        0.0757
     30 C         139.9946  138.8455  155.9220 C.3     1  UNL1        0.0215
     31 C         140.0020  141.2099  154.8451 C.3     1  UNL1        0.0215
@<TRIPOS>BOND
     1    26    27    1
     2    27    28    1
     3    27    23    1
     4    23    24   am
     5    24    25    2
     6    24    17    1
     7    17    18   ar
     8    18    19   ar
     9    19    20   ar
    10    20     1    1
    11     1     2    2
    12     2     3    1
    13     3     4    1
    14     4     5    1
    15     5     6    1
    16     6     7    1
    17     7     8    1
    18     3     9    1
    19     9    10    1
    20    10    11   ar
    21    11    12   ar
    22    12    13   ar
    23    13    14   ar
    24    14    15   ar
    25    20    21   ar
    26    21    22   ar
    27    23    29    1
    28    29    30    1
    29    29    31    1
    30    22    17   ar
    31    15     1    1
    32     8     3    1
    33    15    10   ar
    34     6    16    1
@<TRIPOS>MOLECULE
*****
 31 34 0 0 0
SMALL
GASTEIGER

@<TRIPOS>ATOM
      1 C         140.1541  140.3584  162.5532 C.2     1  UNL1        0.0020
      2 C         140.1403  141.8538  162.6711 C.2     1  UNL1        0.0130
      3 C         139.5406  142.5051  163.8819 C.3     1  UNL1        0.1542
      4 C         140.1264  143.3491  162.7890 C.3     1  UNL1        0.0614
      5 C         140.1125  144.8443  162.9069 C.3     1  UNL1        0.0725
      6 N         139.5128  145.4956  164.1177 N.3     1  UNL1       -0.2972
      7 C         138.9270  144.6517  165.2107 C.3     1  UNL1        0.0725
      8 C         138.9409  143.1564  165.0928 C.3     1  UNL1        0.0614
      9 O         138.9548  141.6611  164.9749 O.3     1  UNL1       -0.4785
     10 C         138.9687  140.1658  164.8570 C.ar    1  UNL1        0.1386
     11 C         138.3829  139.3218  165.9500 C.ar    1  UNL1        0.0369
     12 C         138.3968  137.8265  165.8321 C.ar    1  UNL1        0.0031
     13 C         138.9965  137.1752  164.6212 C.ar    1  UNL1        0.0002
     14 C         139.5822  138.0192  163.5283 C.ar    1  UNL1        0.0030
     15 C         139.5684  139.5145  163.6461 C.ar    1  UNL1        0.0338
     16 H         138.7663  146.1057  163.7846 H       1  UNL1        0.1233
     17 C         141.9531  138.4045  158.9206 C.ar    1  UNL1        0.0536
     18 C         142.8342  138.8280  160.0582 C.ar    1  UNL1        0.0045
     19 C         142.2346  139.4793  161.2691 C.ar    1  UNL1        0.0001
     20 C         140.7538  139.7071  161.3423 C.ar    1  UNL1       -0.0001
     21 C         139.8726  139.2836  160.2047 C.ar    1  UNL1        0.0001
     22 C         140.4723  138.6322  158.9938 C.ar    1  UNL1        0.0045
     23 N         142.8149  138.5631  156.4748 N.am    1  UNL1       -0.2793
     24 C         142.5528  137.7531  157.7098 C.2     1  UNL1        0.2489
     25 O         142.8903  136.2918  157.7339 O.2     1  UNL1       -0.2699
     26 C         142.5536  137.0912  154.3499 C.3     1  UNL1        0.0215
     27 C         143.4146  137.9118  155.2639 C.3     1  UNL1        0.0757
     28 C         144.8751  138.0810  154.9671 C.3     1  UNL1        0.0215
     29 C         142.4774  140.0245  156.4507 C.3     1  UNL1        0.0757
     30 C         141.1844  140.4857  155.8463 C.3     1  UNL1        0.0215
     31 C         143.4330  141.0246  157.0309 C.3     1  UNL1        0.0215
@<TRIPOS>BOND
     1    26    27    1
     2    27    28    1
     3    27    23    1
     4    23    24   am
     5    24    25    2
     6    24    17    1
     7    17    18   ar
     8    18    19   ar
     9    19    20   ar
    10    20     1    1
    11     1     2    2
    12     2     3    1
    13     3     4    1
    14     4     5    1
    15     5     6    1
    16     6     7    1
    17     7     8    1
    18     3     9    1
    19     9    10    1
    20    10    11   ar
    21    11    12   ar
    22    12    13   ar
    23    13    14   ar
    24    14    15   ar
    25    20    21   ar
    26    21    22   ar
    27    23    29    1
    28    29    30    1
    29    29    31    1
    30    22    17   ar
    31    15     1    1
    32     8     3    1
    33    15    10   ar
    34     6    16    1
@<TRIPOS>MOLECULE
*****
 31 34 0 0 0
SMALL
GASTEIGER

@<TRIPOS>ATOM
      1 C         141.7861  140.0280  163.6701 C.2     1  UNL1        0.0020
      2 C         140.6472  139.4537  164.4595 C.2     1  UNL1        0.0130
      3 C         140.3965  139.9208  165.8627 C.3     1  UNL1        0.1542
      4 C         139.5083  138.8795  165.2489 C.3     1  UNL1        0.0614
      5 C         138.3695  138.3053  166.0384 C.3     1  UNL1        0.0725
      6 N         138.1187  138.7724  167.4415 N.3     1  UNL1       -0.2972
      7 C         139.0069  139.8137  168.0553 C.3     1  UNL1        0.0725
      8 C         140.1457  140.3879  167.2659 C.3     1  UNL1        0.0614
      9 O         141.2847  140.9622  166.4765 O.3     1  UNL1       -0.4785
     10 C         142.4235  141.5364  165.6871 C.ar    1  UNL1        0.1386
     11 C         143.3117  142.5779  166.3009 C.ar    1  UNL1        0.0369
     12 C         144.4506  143.1521  165.5114 C.ar    1  UNL1        0.0031
     13 C         144.7013  142.6850  164.1083 C.ar    1  UNL1        0.0002
     14 C         143.8132  141.6436  163.4945 C.ar    1  UNL1        0.0030
     15 C         142.6743  141.0693  164.2839 C.ar    1  UNL1        0.0338
     16 H         138.1736  137.9485  168.0404 H       1  UNL1        0.1233
     17 C         142.5383  138.6267  159.4605 C.ar    1  UNL1        0.0536
     18 C         143.5870  138.4306  160.5149 C.ar    1  UNL1        0.0045
     19 C         143.3363  138.8978  161.9181 C.ar    1  UNL1        0.0001
     20 C         142.0368  139.5609  162.2669 C.ar    1  UNL1       -0.0001
     21 C         140.9880  139.7569  161.2125 C.ar    1  UNL1        0.0001
     22 C         141.2388  139.2898  159.8093 C.ar    1  UNL1        0.0045
     23 N         143.1539  139.1496  156.9912 N.am    1  UNL1       -0.2793
     24 C         142.7890  138.1595  158.0574 C.2     1  UNL1        0.2489
     25 O         142.6748  136.7023  157.7203 O.2     1  UNL1       -0.2699
     26 C         144.8107  138.5051  155.0966 C.3     1  UNL1        0.0215
     27 C         143.4046  138.6824  155.5880 C.3     1  UNL1        0.0757
     28 C         142.2493  138.3927  154.6763 C.3     1  UNL1        0.0215
     29 C         143.2681  140.6068  157.3283 C.3     1  UNL1        0.0757
     30 C         144.5317  141.1392  157.9364 C.3     1  UNL1        0.0215
     31 C         142.1186  141.5316  157.0571 C.3     1  UNL1        0.0215
@<TRIPOS>BOND
     1    26    27    1
     2    27    28    1
     3    27    23    1
     4    23    24   am
     5    24    25    2
     6    24    17    1
     7    17    18   ar
     8    18    19   ar
     9    19    20   ar
    10    20     1    1
    11     1     2    2
    12     2     3    1
    13     3     4    1
    14     4     5    1
    15     5     6    1
    16     6     7    1
    17     7     8    1
    18     3     9    1
    19     9    10    1
    20    10    11   ar
    21    11    12   ar
    22    12    13   ar
    23    13    14   ar
    24    14    15   ar
    25    20    21   ar
    26    21    22   ar
    27    23    29    1
    28    29    30    1
    29    29    31    1
    30    22    17   ar
    31    15     1    1
    32     8     3    1
    33    15    10   ar
    34     6    16    1
@<TRIPOS>MOLECULE
*****
 31 34 0 0 0
SMALL
GASTEIGER

@<TRIPOS>ATOM
      1 C         140.6240  141.4127  164.1682 C.2     1  UNL1        0.0020
      2 C         139.8619  140.7664  165.2870 C.2     1  UNL1        0.0130
      3 C         140.3950  140.8224  166.6880 C.3     1  UNL1        0.1542
      4 C         139.0999  140.1203  166.4058 C.3     1  UNL1        0.0614
      5 C         138.3379  139.4741  167.5246 C.3     1  UNL1        0.0725
      6 N         138.8710  139.5300  168.9255 N.3     1  UNL1       -0.2972
      7 C         140.1661  140.2321  169.2077 C.3     1  UNL1        0.0725
      8 C         140.9281  140.8783  168.0889 C.3     1  UNL1        0.0614
      9 O         141.6901  141.5246  166.9701 O.3     1  UNL1       -0.4785
     10 C         142.4522  142.1708  165.8513 C.ar    1  UNL1        0.1386
     11 C         143.7473  142.8730  166.1335 C.ar    1  UNL1        0.0369
     12 C         144.5093  143.5192  165.0147 C.ar    1  UNL1        0.0031
     13 C         143.9762  143.4632  163.6137 C.ar    1  UNL1        0.0002
     14 C         142.6811  142.7611  163.3316 C.ar    1  UNL1        0.0030
     15 C         141.9191  142.1148  164.4504 C.ar    1  UNL1        0.0338
     16 H         138.9855  138.5651  169.2358 H       1  UNL1        0.1233
     17 C         139.0247  141.2448  159.9653 C.ar    1  UNL1        0.0536
     18 C         138.5592  142.3195  160.9026 C.ar    1  UNL1        0.0045
     19 C         139.0923  142.3754  162.3035 C.ar    1  UNL1        0.0001
     20 C         140.0909  141.3567  162.7672 C.ar    1  UNL1       -0.0001
     21 C         140.5564  140.2820  161.8300 C.ar    1  UNL1        0.0001
     22 C         140.0233  140.2261  160.4290 C.ar    1  UNL1        0.0045
     23 N         139.1241  142.0197  157.4875 N.am    1  UNL1       -0.2793
     24 C         138.4916  141.1889  158.5644 C.2     1  UNL1        0.2489
     25 O         137.3260  140.3021  158.2403 O.2     1  UNL1       -0.2699
     26 C         139.0266  140.8660  155.1616 C.3     1  UNL1        0.0215
     27 C         138.5910  141.9637  156.0865 C.3     1  UNL1        0.0757
     28 C         137.6225  143.0054  155.6105 C.3     1  UNL1        0.0215
     29 C         140.2898  142.9065  157.8115 C.3     1  UNL1        0.0757
     30 C         140.0610  144.3451  158.1691 C.3     1  UNL1        0.0215
     31 C         141.6841  142.3545  157.7780 C.3     1  UNL1        0.0215
@<TRIPOS>BOND
     1    26    27    1
     2    27    28    1
     3    27    23    1
     4    23    24   am
     5    24    25    2
     6    24    17    1
     7    17    18   ar
     8    18    19   ar
     9    19    20   ar
    10    20     1    1
    11     1     2    2
    12     2     3    1
    13     3     4    1
    14     4     5    1
    15     5     6    1
    16     6     7    1
    17     7     8    1
    18     3     9    1
    19     9    10    1
    20    10    11   ar
    21    11    12   ar
    22    12    13   ar
    23    13    14   ar
    24    14    15   ar
    25    20    21   ar
    26    21    22   ar
    27    23    29    1
    28    29    30    1
    29    29    31    1
    30    22    17   ar
    31    15     1    1
    32     8     3    1
    33    15    10   ar
    34     6    16    1
@<TRIPOS>MOLECULE
*****
 31 34 0 0 0
SMALL
GASTEIGER

@<TRIPOS>ATOM
      1 C         140.8266  141.1163  164.0333 C.2     1  UNL1        0.0020
      2 C         141.4432  140.8179  165.3678 C.2     1  UNL1        0.0130
      3 C         141.0436  141.6155  166.5737 C.3     1  UNL1        0.1542
      4 C         142.0597  140.5196  166.7023 C.3     1  UNL1        0.0614
      5 C         142.6762  140.2213  168.0368 C.3     1  UNL1        0.0725
      6 N         142.2766  141.0189  169.2427 N.3     1  UNL1       -0.2972
      7 C         141.2606  142.1148  169.1141 C.3     1  UNL1        0.0725
      8 C         140.6441  142.4131  167.7796 C.3     1  UNL1        0.0614
      9 O         140.0275  142.7115  166.4451 O.3     1  UNL1       -0.4785
     10 C         139.4110  143.0098  165.1106 C.ar    1  UNL1        0.1386
     11 C         138.3949  144.1057  164.9820 C.ar    1  UNL1        0.0369
     12 C         137.7784  144.4041  163.6475 C.ar    1  UNL1        0.0031
     13 C         138.1779  143.6065  162.4416 C.ar    1  UNL1        0.0002
     14 C         139.1940  142.5106  162.5702 C.ar    1  UNL1        0.0030
     15 C         139.8105  142.2122  163.9047 C.ar    1  UNL1        0.0338
     16 H         143.1274  141.4475  169.6074 H       1  UNL1        0.1233
     17 C         142.0253  138.7235  160.4156 C.ar    1  UNL1        0.0536
     18 C         142.8157  139.9364  160.8082 C.ar    1  UNL1        0.0045
     19 C         142.4161  140.7340  162.0141 C.ar    1  UNL1        0.0001
     20 C         141.2262  140.3187  162.8274 C.ar    1  UNL1       -0.0001
     21 C         140.4357  139.1058  162.4348 C.ar    1  UNL1        0.0001
     22 C         140.8353  138.3082  161.2289 C.ar    1  UNL1        0.0045
     23 N         141.8860  138.2894  157.8578 N.am    1  UNL1       -0.2793
     24 C         142.4248  137.9260  159.2097 C.2     1  UNL1        0.2489
     25 O         143.3633  136.7649  159.3557 O.2     1  UNL1       -0.2699
     26 C         143.5248  137.8555  155.8891 C.3     1  UNL1        0.0215
     27 C         142.2855  137.4918  156.6519 C.3     1  UNL1        0.0757
     28 C         141.4458  136.3305  156.2089 C.3     1  UNL1        0.0215
     29 C         140.9475  139.4504  157.7119 C.3     1  UNL1        0.0757
     30 C         141.4877  140.8200  157.4251 C.3     1  UNL1        0.0215
     31 C         139.4687  139.2418  157.8527 C.3     1  UNL1        0.0215
@<TRIPOS>BOND
     1    26    27    1
     2    27    28    1
     3    27    23    1
     4    23    24   am
     5    24    25    2
     6    24    17    1
     7    17    18   ar
     8    18    19   ar
     9    19    20   ar
    10    20     1    1
    11     1     2    2
    12     2     3    1
    13     3     4    1
    14     4     5    1
    15     5     6    1
    16     6     7    1
    17     7     8    1
    18     3     9    1
    19     9    10    1
    20    10    11   ar
    21    11    12   ar
    22    12    13   ar
    23    13    14   ar
    24    14    15   ar
    25    20    21   ar
    26    21    22   ar
    27    23    29    1
    28    29    30    1
    29    29    31    1
    30    22    17   ar
    31    15     1    1
    32     8     3    1
    33    15    10   ar
    34     6    16    1
@<TRIPOS>MOLECULE
*****
 31 34 0 0 0
SMALL
GASTEIGER

@<TRIPOS>ATOM
      1 C         141.9697  137.4927  157.4554 C.2     1  UNL1        0.0020
      2 C         142.6885  136.1989  157.2110 C.2     1  UNL1        0.0130
      3 C         142.2079  135.2647  156.1403 C.3     1  UNL1        0.1542
      4 C         143.4071  134.9052  156.9666 C.3     1  UNL1        0.0614
      5 C         144.1257  133.6115  156.7222 C.3     1  UNL1        0.0725
      6 N         143.6452  132.6773  155.6515 N.3     1  UNL1       -0.2972
      7 C         142.4461  133.0368  154.8253 C.3     1  UNL1        0.0725
      8 C         141.7274  134.3305  155.0697 C.3     1  UNL1        0.0614
      9 O         141.0087  135.6243  155.3140 O.3     1  UNL1       -0.4785
     10 C         140.2901  136.9180  155.5585 C.ar    1  UNL1        0.1386
     11 C         139.0909  137.2776  154.7322 C.ar    1  UNL1        0.0369
     12 C         138.3722  138.5713  154.9766 C.ar    1  UNL1        0.0031
     13 C         138.8527  139.5055  156.0472 C.ar    1  UNL1        0.0002
     14 C         140.0519  139.1460  156.8735 C.ar    1  UNL1        0.0030
     15 C         140.7706  137.8522  156.6291 C.ar    1  UNL1        0.0338
     16 H         143.4329  131.7903  156.1082 H       1  UNL1        0.1233
     17 C         143.4113  140.2954  160.6674 C.ar    1  UNL1        0.0536
     18 C         143.7559  140.5594  159.2316 C.ar    1  UNL1        0.0045
     19 C         143.2754  139.6252  158.1610 C.ar    1  UNL1        0.0001
     20 C         142.4503  138.4270  158.5260 C.ar    1  UNL1       -0.0001
     21 C         142.1055  138.1629  159.9619 C.ar    1  UNL1        0.0001
     22 C         142.5860  139.0972  161.0326 C.ar    1  UNL1        0.0045
     23 N         142.9990  142.3305  162.2289 N.am    1  UNL1       -0.2793
     24 C         143.8918  141.2296  161.7381 C.2     1  UNL1        0.2489
     25 O         145.2652  141.0630  162.3178 O.2     1  UNL1       -0.2699
     26 C         144.0233  144.6129  162.9299 C.3     1  UNL1        0.0215
     27 C         143.4795  143.2647  163.2996 C.3     1  UNL1        0.0757
     28 C         143.4162  142.8508  164.7399 C.3     1  UNL1        0.0215
     29 C         141.6256  142.4971  161.6491 C.3     1  UNL1        0.0757
     30 C         141.4331  143.2958  160.3941 C.3     1  UNL1        0.0215
     31 C         140.4447  141.8651  162.3244 C.3     1  UNL1        0.0215
@<TRIPOS>BOND
     1    26    27    1
     2    27    28    1
     3    27    23    1
     4    23    24   am
     5    24    25    2
     6    24    17    1
     7    17    18   ar
     8    18    19   ar
     9    19    20   ar
    10    20     1    1
    11     1     2    2
    12     2     3    1
    13     3     4    1
    14     4     5    1
    15     5     6    1
    16     6     7    1
    17     7     8    1
    18     3     9    1
    19     9    10    1
    20    10    11   ar
    21    11    12   ar
    22    12    13   ar
    23    13    14   ar
    24    14    15   ar
    25    20    21   ar
    26    21    22   ar
    27    23    29    1
    28    29    30    1
    29    29    31    1
    30    22    17   ar
    31    15     1    1
    32     8     3    1
    33    15    10   ar
    34     6    16    1
