@<TRIPOS>MOLECULE
*****
 42 46 0 0 0
SMALL
GASTEIGER

@<TRIPOS>ATOM
      1 C         142.5638  144.1381  162.8122 C.2     1  UNL1        0.2251
      2 O         143.6119  145.1223  163.2400 O.2     1  UNL1       -0.2749
      3 N         142.1121  143.0650  163.7578 N.am    1  UNL1       -0.2794
      4 C         141.0640  142.0809  163.3299 C.3     1  UNL1        0.0954
      5 C         140.6122  141.0077  164.2755 C.3     1  UNL1        0.0440
      6 C         141.2085  140.9186  165.6490 C.3     1  UNL1        0.0839
      7 C         142.2566  141.9028  166.0769 C.3     1  UNL1        0.0440
      8 C         142.7084  142.9759  165.1313 C.3     1  UNL1        0.0954
      9 C         140.7750  144.4053  158.6917 C.3     1  UNL1        0.0542
     10 C         141.9256  143.4787  158.9511 C.3     1  UNL1        0.0162
     11 C         142.5219  143.3896  160.3246 C.3     1  UNL1        0.0104
     12 C         141.9675  144.2272  161.4387 C.3     1  UNL1        0.0768
     13 C         140.8169  145.1539  161.1792 C.3     1  UNL1        0.0095
     14 C         139.7439  146.1725  161.4266 C.3     1  UNL1        0.0005
     15 C         141.0405  145.4186  162.6386 C.3     1  UNL1        0.0005
     16 C         140.2206  145.2430  159.8057 C.3     1  UNL1        0.0162
     17 N         140.1787  144.4944  157.3182 N.3     1  UNL1       -0.2962
     18 H         140.2478  143.5638  156.9063 H       1  UNL1        0.1235
     19 C         140.7455  145.4550  156.3153 C.3     1  UNL1        0.0768
     20 C         141.9885  145.0988  155.5550 C.3     1  UNL1        0.0220
     21 C         138.7173  149.4055  155.5876 C.ar    1  UNL1        0.1387
     22 C         138.5452  148.7051  156.9027 C.ar    1  UNL1        0.0366
     23 C         139.2213  147.3883  157.1453 C.ar    1  UNL1        0.0001
     24 C         140.0695  146.7718  156.0727 C.ar    1  UNL1       -0.0078
     25 C         140.2416  147.4723  154.7575 C.ar    1  UNL1        0.0001
     26 C         139.5655  148.7891  154.5150 C.ar    1  UNL1        0.0366
     27 C         138.8209  151.9985  155.4615 C.3     1  UNL1        0.2525
     28 O         138.0412  150.7224  155.3450 O.3     1  UNL1       -0.4714
     29 N         140.2522  139.7644  165.7049 N.am    1  UNL1       -0.2638
     30 C         138.9494  139.9045  166.4350 C.3     1  UNL1        0.0969
     31 C         137.9931  138.7502  166.4909 C.3     1  UNL1        0.0428
     32 C         138.3395  137.4559  165.8166 C.3     1  UNL1        0.0927
     33 N         139.6423  137.3158  165.0864 N.am    1  UNL1       -0.2887
     34 C         140.5987  138.4701  165.0306 C.2     1  UNL1        0.3041
     35 O         141.9015  138.3300  164.3004 O.2     1  UNL1       -0.2526
     36 H         139.8697  136.4663  164.6439 H       1  UNL1        0.1510
     37 C         141.4727  140.4287  167.0419 C.ar    1  UNL1       -0.0059
     38 C         140.6392  140.9298  168.1839 C.ar    1  UNL1       -0.0027
     39 C         140.9034  140.4399  169.5768 C.ar    1  UNL1       -0.0003
     40 C         142.0010  139.4489  169.8277 C.ar    1  UNL1       -0.0000
     41 C         142.8345  138.9478  168.6857 C.ar    1  UNL1       -0.0003
     42 C         142.5704  139.4377  167.2928 C.ar    1  UNL1       -0.0027
@<TRIPOS>BOND
     1    27    28    1
     2    28    21    1
     3    21    22   ar
     4    22    23   ar
     5    23    24   ar
     6    24    19    1
     7    19    20    1
     8    19    17    1
     9     9    17    1
    10     9    10    1
    11    10    11    1
    12    11    12    1
    13    12     1    1
    14     1     2    2
    15     1     3   am
    16     3     4    1
    17     4     5    1
    18     5     6    1
    19     6    37    1
    20    37    38   ar
    21    38    39   ar
    22    39    40   ar
    23    40    41   ar
    24    41    42   ar
    25     6    29    1
    26    29    30    1
    27    30    31    1
    28    31    32    1
    29    32    33    1
    30    33    34   am
    31    34    35    2
    32     6     7    1
    33     7     8    1
    34    12    13    1
    35    13    14    1
    36    13    15    1
    37    13    16    1
    38    24    25   ar
    39    25    26   ar
    40    26    21   ar
    41    16     9    1
    42     8     3    1
    43    42    37   ar
    44    34    29   am
    45    17    18    1
    46    33    36    1
@<TRIPOS>MOLECULE
*****
 42 46 0 0 0
SMALL
GASTEIGER

@<TRIPOS>ATOM
      1 C         142.6783  144.2153  163.1890 C.2     1  UNL1        0.2251
      2 O         143.7006  145.1910  163.6920 O.2     1  UNL1       -0.2749
      3 N         142.2014  143.1042  164.0767 N.am    1  UNL1       -0.2794
      4 C         141.1793  142.1286  163.5737 C.3     1  UNL1        0.0954
      5 C         140.7023  141.0174  164.4614 C.3     1  UNL1        0.0440
      6 C         141.2476  140.8821  165.8522 C.3     1  UNL1        0.0839
      7 C         142.2699  141.8578  166.3553 C.3     1  UNL1        0.0440
      8 C         142.7468  142.9689  165.4675 C.3     1  UNL1        0.0954
      9 C         141.0424  144.6213  159.0166 C.3     1  UNL1        0.0542
     10 C         142.2293  143.7411  159.2745 C.3     1  UNL1        0.0162
     11 C         142.7746  143.6058  160.6653 C.3     1  UNL1        0.0104
     12 C         142.1330  144.3506  161.7982 C.3     1  UNL1        0.0768
     13 C         140.9461  145.2309  161.5404 C.3     1  UNL1        0.0095
     14 C         139.8118  146.1784  161.7964 C.3     1  UNL1        0.0005
     15 C         141.0975  145.4246  163.0200 C.3     1  UNL1        0.0005
     16 C         140.4008  145.3662  160.1496 C.3     1  UNL1        0.0162
     17 N         140.4971  144.7567  157.6258 N.3     1  UNL1       -0.2962
     18 H         139.9395  145.6106  157.6100 H       1  UNL1        0.1235
     19 C         139.6409  143.6697  157.0468 C.3     1  UNL1        0.0768
     20 C         138.8740  143.9131  155.7810 C.3     1  UNL1        0.0220
     21 C         139.3733  139.6781  159.1074 C.ar    1  UNL1        0.1387
     22 C         138.4935  140.8102  159.5481 C.ar    1  UNL1        0.0366
     23 C         138.5827  142.1407  158.8613 C.ar    1  UNL1        0.0001
     24 C         139.5517  142.3391  157.7337 C.ar    1  UNL1       -0.0078
     25 C         140.4316  141.2071  157.2930 C.ar    1  UNL1        0.0001
     26 C         140.3424  139.8766  157.9798 C.ar    1  UNL1        0.0366
     27 C         139.3353  138.2715  161.2914 C.3     1  UNL1        0.2525
     28 O         139.2841  138.3476  159.7943 O.3     1  UNL1       -0.4714
     29 N         140.3006  139.7191  165.8294 N.am    1  UNL1       -0.2638
     30 C         138.9684  139.8233  166.5110 C.3     1  UNL1        0.0969
     31 C         138.0213  138.6603  166.4882 C.3     1  UNL1        0.0428
     32 C         138.4064  137.3932  165.7839 C.3     1  UNL1        0.0927
     33 N         139.7386  137.2890  165.1023 N.am    1  UNL1       -0.2887
     34 C         140.6856  138.4520  165.1251 C.2     1  UNL1        0.3041
     35 O         142.0178  138.3478  164.4436 O.2     1  UNL1       -0.2526
     36 H         139.9913  136.4574  164.6400 H       1  UNL1        0.1510
     37 C         141.4640  140.3429  167.2351 C.ar    1  UNL1       -0.0059
     38 C         142.6120  139.4167  167.5078 C.ar    1  UNL1       -0.0027
     39 C         142.8284  138.8774  168.8907 C.ar    1  UNL1       -0.0003
     40 C         141.8969  139.2643  170.0009 C.ar    1  UNL1       -0.0000
     41 C         140.7489  140.1905  169.7281 C.ar    1  UNL1       -0.0003
     42 C         140.5324  140.7298  168.3453 C.ar    1  UNL1       -0.0027
@<TRIPOS>BOND
     1    27    28    1
     2    28    21    1
     3    21    22   ar
     4    22    23   ar
     5    23    24   ar
     6    24    19    1
     7    19    20    1
     8    19    17    1
     9     9    17    1
    10     9    10    1
    11    10    11    1
    12    11    12    1
    13    12     1    1
    14     1     2    2
    15     1     3   am
    16     3     4    1
    17     4     5    1
    18     5     6    1
    19     6    37    1
    20    37    38   ar
    21    38    39   ar
    22    39    40   ar
    23    40    41   ar
    24    41    42   ar
    25     6    29    1
    26    29    30    1
    27    30    31    1
    28    31    32    1
    29    32    33    1
    30    33    34   am
    31    34    35    2
    32     6     7    1
    33     7     8    1
    34    12    13    1
    35    13    14    1
    36    13    15    1
    37    13    16    1
    38    24    25   ar
    39    25    26   ar
    40    26    21   ar
    41    16     9    1
    42     8     3    1
    43    42    37   ar
    44    34    29   am
    45    17    18    1
    46    33    36    1
@<TRIPOS>MOLECULE
*****
 42 46 0 0 0
SMALL
GASTEIGER

@<TRIPOS>ATOM
      1 C         142.6628  144.2210  163.1441 C.2     1  UNL1        0.2251
      2 O         143.7042  145.1843  163.6316 O.2     1  UNL1       -0.2749
      3 N         142.1922  143.1106  164.0360 N.am    1  UNL1       -0.2794
      4 C         141.1508  142.1474  163.5485 C.3     1  UNL1        0.0954
      5 C         140.6801  141.0369  164.4404 C.3     1  UNL1        0.0440
      6 C         141.2508  140.8897  165.8197 C.3     1  UNL1        0.0839
      7 C         142.2922  141.8530  166.3072 C.3     1  UNL1        0.0440
      8 C         142.7629  142.9634  165.4153 C.3     1  UNL1        0.0954
      9 C         140.9507  144.6625  159.0060 C.3     1  UNL1        0.0542
     10 C         142.1309  143.7662  159.2377 C.3     1  UNL1        0.0162
     11 C         142.7016  143.6190  160.6170 C.3     1  UNL1        0.0104
     12 C         142.0921  144.3681  161.7648 C.3     1  UNL1        0.0768
     13 C         140.9118  145.2645  161.5331 C.3     1  UNL1        0.0095
     14 C         139.7951  146.2256  161.8144 C.3     1  UNL1        0.0005
     15 C         141.0947  145.4511  163.0102 C.3     1  UNL1        0.0005
     16 C         140.3411  145.4116  160.1538 C.3     1  UNL1        0.0162
     17 N         140.3800  144.8096  157.6267 N.3     1  UNL1       -0.2962
     18 H         139.4352  145.1780  157.7367 H       1  UNL1        0.1235
     19 C         140.2766  143.6144  156.7263 C.3     1  UNL1        0.0768
     20 C         141.4242  143.2468  155.8332 C.3     1  UNL1        0.0220
     21 C         136.5236  141.1315  156.7049 C.ar    1  UNL1        0.1387
     22 C         136.6737  142.2722  155.7425 C.ar    1  UNL1        0.0366
     23 C         137.9247  143.0998  155.7496 C.ar    1  UNL1        0.0001
     24 C         139.0256  142.7868  156.7192 C.ar    1  UNL1       -0.0078
     25 C         138.8754  141.6461  157.6816 C.ar    1  UNL1        0.0001
     26 C         137.6245  140.8184  157.6744 C.ar    1  UNL1        0.0366
     27 C         134.6115  139.9552  155.3973 C.3     1  UNL1        0.2525
     28 O         135.2726  140.3039  156.6977 O.3     1  UNL1       -0.4714
     29 N         140.2920  139.7363  165.8101 N.am    1  UNL1       -0.2638
     30 C         138.9657  139.8576  166.5003 C.3     1  UNL1        0.0969
     31 C         138.0069  138.7042  166.4907 C.3     1  UNL1        0.0428
     32 C         138.3743  137.4293  165.7909 C.3     1  UNL1        0.0927
     33 N         139.7005  137.3080  165.1006 N.am    1  UNL1       -0.2887
     34 C         140.6593  138.4614  165.1103 C.2     1  UNL1        0.3041
     35 O         141.9856  138.3400  164.4200 O.2     1  UNL1       -0.2526
     36 H         139.9416  136.4712  164.6413 H       1  UNL1        0.1510
     37 C         141.4885  140.3420  167.1957 C.ar    1  UNL1       -0.0059
     38 C         142.6418  139.4159  167.4454 C.ar    1  UNL1       -0.0027
     39 C         142.8795  138.8681  168.8215 C.ar    1  UNL1       -0.0003
     40 C         141.9640  139.2465  169.9478 C.ar    1  UNL1       -0.0000
     41 C         140.8108  140.1726  169.6981 C.ar    1  UNL1       -0.0003
     42 C         140.5730  140.7204  168.3221 C.ar    1  UNL1       -0.0027
@<TRIPOS>BOND
     1    27    28    1
     2    28    21    1
     3    21    22   ar
     4    22    23   ar
     5    23    24   ar
     6    24    19    1
     7    19    20    1
     8    19    17    1
     9     9    17    1
    10     9    10    1
    11    10    11    1
    12    11    12    1
    13    12     1    1
    14     1     2    2
    15     1     3   am
    16     3     4    1
    17     4     5    1
    18     5     6    1
    19     6    37    1
    20    37    38   ar
    21    38    39   ar
    22    39    40   ar
    23    40    41   ar
    24    41    42   ar
    25     6    29    1
    26    29    30    1
    27    30    31    1
    28    31    32    1
    29    32    33    1
    30    33    34   am
    31    34    35    2
    32     6     7    1
    33     7     8    1
    34    12    13    1
    35    13    14    1
    36    13    15    1
    37    13    16    1
    38    24    25   ar
    39    25    26   ar
    40    26    21   ar
    41    16     9    1
    42     8     3    1
    43    42    37   ar
    44    34    29   am
    45    17    18    1
    46    33    36    1
@<TRIPOS>MOLECULE
*****
 42 46 0 0 0
SMALL
GASTEIGER

@<TRIPOS>ATOM
      1 C         140.5294  144.2041  161.7534 C.2     1  UNL1        0.2251
      2 O         141.4623  145.1873  162.3960 O.2     1  UNL1       -0.2749
      3 N         140.2696  144.2709  160.2776 N.am    1  UNL1       -0.2794
      4 C         139.3367  143.2877  159.6351 C.3     1  UNL1        0.0954
      5 C         139.0768  143.3544  158.1592 C.3     1  UNL1        0.0440
      6 C         139.7500  144.4045  157.3260 C.3     1  UNL1        0.0839
      7 C         140.6830  145.3877  157.9686 C.3     1  UNL1        0.0440
      8 C         140.9427  145.3209  159.4444 C.3     1  UNL1        0.0954
      9 C         138.5099  141.0540  164.2532 C.3     1  UNL1        0.0542
     10 C         139.6327  140.6757  163.3334 C.3     1  UNL1        0.0162
     11 C         140.3059  141.7257  162.5002 C.3     1  UNL1        0.0104
     12 C         139.8562  143.1540  162.5867 C.3     1  UNL1        0.0768
     13 C         138.7333  143.5324  163.5065 C.3     1  UNL1        0.0095
     14 C         137.7223  144.3774  164.2234 C.3     1  UNL1        0.0005
     15 C         139.0554  144.8759  162.9222 C.3     1  UNL1        0.0005
     16 C         138.0602  142.4824  164.3398 C.3     1  UNL1        0.0162
     17 N         137.8367  140.0040  165.0865 N.3     1  UNL1       -0.2962
     18 H         137.2632  140.4952  165.7722 H       1  UNL1        0.1235
     19 C         138.6608  139.0069  165.8459 C.3     1  UNL1        0.0768
     20 C         138.4744  137.5387  165.6018 C.3     1  UNL1        0.0220
     21 C         141.6923  140.4203  168.8563 C.ar    1  UNL1        0.1387
     22 C         140.2408  140.3527  169.2285 C.ar    1  UNL1        0.0366
     23 C         139.2303  139.8816  168.2251 C.ar    1  UNL1        0.0001
     24 C         139.6713  139.4780  166.8493 C.ar    1  UNL1       -0.0078
     25 C         141.1228  139.5456  166.4771 C.ar    1  UNL1        0.0001
     26 C         142.1332  140.0167  167.4806 C.ar    1  UNL1        0.0366
     27 C         143.5014  142.1328  169.5938 C.3     1  UNL1        0.2525
     28 O         142.7027  140.8914  169.8598 O.3     1  UNL1       -0.4714
     29 N         138.9549  143.7010  156.2662 N.am    1  UNL1       -0.2638
     30 C         137.7353  144.3540  155.6863 C.3     1  UNL1        0.0969
     31 C         136.9403  143.6506  154.6265 C.3     1  UNL1        0.0428
     32 C         137.3647  142.2943  154.1467 C.3     1  UNL1        0.0927
     33 N         138.5843  141.6414  154.7267 N.am    1  UNL1       -0.2887
     34 C         139.3794  142.3448  155.7865 C.2     1  UNL1        0.3041
     35 O         140.5990  141.6918  156.3664 O.2     1  UNL1       -0.2526
     36 H         138.8629  140.7511  154.4118 H       1  UNL1        0.1510
     37 C         140.1470  145.2102  156.1247 C.ar    1  UNL1       -0.0059
     38 C         141.1715  144.6756  155.1683 C.ar    1  UNL1       -0.0027
     39 C         141.5685  145.4814  153.9669 C.ar    1  UNL1       -0.0003
     40 C         140.9412  146.8216  153.7221 C.ar    1  UNL1       -0.0000
     41 C         139.9167  147.3562  154.6785 C.ar    1  UNL1       -0.0003
     42 C         139.5196  146.5505  155.8798 C.ar    1  UNL1       -0.0027
@<TRIPOS>BOND
     1    27    28    1
     2    28    21    1
     3    21    22   ar
     4    22    23   ar
     5    23    24   ar
     6    24    19    1
     7    19    20    1
     8    19    17    1
     9     9    17    1
    10     9    10    1
    11    10    11    1
    12    11    12    1
    13    12     1    1
    14     1     2    2
    15     1     3   am
    16     3     4    1
    17     4     5    1
    18     5     6    1
    19     6    37    1
    20    37    38   ar
    21    38    39   ar
    22    39    40   ar
    23    40    41   ar
    24    41    42   ar
    25     6    29    1
    26    29    30    1
    27    30    31    1
    28    31    32    1
    29    32    33    1
    30    33    34   am
    31    34    35    2
    32     6     7    1
    33     7     8    1
    34    12    13    1
    35    13    14    1
    36    13    15    1
    37    13    16    1
    38    24    25   ar
    39    25    26   ar
    40    26    21   ar
    41    16     9    1
    42     8     3    1
    43    42    37   ar
    44    34    29   am
    45    17    18    1
    46    33    36    1
@<TRIPOS>MOLECULE
*****
 42 46 0 0 0
SMALL
GASTEIGER

@<TRIPOS>ATOM
      1 C         142.9349  144.0366  162.3558 C.2     1  UNL1        0.2251
      2 O         143.9509  145.0612  162.7660 O.2     1  UNL1       -0.2749
      3 N         142.4043  143.0610  163.3641 N.am    1  UNL1       -0.2794
      4 C         141.3884  142.0366  162.9539 C.3     1  UNL1        0.0954
      5 C         140.8577  141.0609  163.9622 C.3     1  UNL1        0.0440
      6 C         141.3430  141.1098  165.3807 C.3     1  UNL1        0.0839
      7 C         142.3590  142.1343  165.7908 C.3     1  UNL1        0.0440
      8 C         142.8896  143.1099  164.7826 C.3     1  UNL1        0.0954
      9 C         141.4789  143.8899  158.1004 C.3     1  UNL1        0.0542
     10 C         140.6951  144.6406  159.1358 C.3     1  UNL1        0.0162
     11 C         141.1804  144.6895  160.5543 C.3     1  UNL1        0.0104
     12 C         142.4495  143.9877  160.9373 C.3     1  UNL1        0.0768
     13 C         143.2334  143.2370  159.9019 C.3     1  UNL1        0.0095
     14 C         144.3165  142.4028  159.2846 C.3     1  UNL1        0.0005
     15 C         144.0949  142.9962  161.1060 C.3     1  UNL1        0.0005
     16 C         142.7481  143.1882  158.4834 C.3     1  UNL1        0.0162
     17 N         140.9936  143.8411  156.6819 N.3     1  UNL1       -0.2962
     18 H         141.6077  144.4485  156.1395 H       1  UNL1        0.1235
     19 C         139.5864  144.2458  156.3563 C.3     1  UNL1        0.0768
     20 C         139.2798  145.6693  155.9962 C.3     1  UNL1        0.0220
     21 C         136.2849  141.1899  156.4598 C.ar    1  UNL1        0.1387
     22 C         137.4868  141.0256  157.3420 C.ar    1  UNL1        0.0366
     23 C         138.5873  142.0443  157.3075 C.ar    1  UNL1        0.0001
     24 C         138.4859  143.2272  156.3908 C.ar    1  UNL1       -0.0078
     25 C         137.2840  143.3914  155.5086 C.ar    1  UNL1        0.0001
     26 C         136.1835  142.3728  155.5431 C.ar    1  UNL1        0.0366
     27 C         134.6013  139.6533  155.2130 C.3     1  UNL1        0.2525
     28 O         135.1843  140.1712  156.4943 O.3     1  UNL1       -0.4714
     29 N         140.3794  139.9641  165.4744 N.am    1  UNL1       -0.2638
     30 C         139.0425  140.1600  166.1258 C.3     1  UNL1        0.0969
     31 C         138.0789  139.0143  166.2195 C.3     1  UNL1        0.0428
     32 C         138.4521  137.6728  165.6619 C.3     1  UNL1        0.0927
     33 N         139.7891  137.4769  165.0104 N.am    1  UNL1       -0.2887
     34 C         140.7527  138.6226  164.9167 C.2     1  UNL1        0.3041
     35 O         142.0896  138.4268  164.2653 O.2     1  UNL1       -0.2526
     36 H         140.0341  136.5964  164.6444 H       1  UNL1        0.1510
     37 C         141.4937  140.7608  166.8316 C.ar    1  UNL1       -0.0059
     38 C         140.6594  141.4620  167.8623 C.ar    1  UNL1       -0.0027
     39 C         140.8101  141.1130  169.3133 C.ar    1  UNL1       -0.0003
     40 C         141.7950  140.0629  169.7338 C.ar    1  UNL1       -0.0000
     41 C         142.6294  139.3616  168.7031 C.ar    1  UNL1       -0.0003
     42 C         142.4788  139.7106  167.2521 C.ar    1  UNL1       -0.0027
@<TRIPOS>BOND
     1    27    28    1
     2    28    21    1
     3    21    22   ar
     4    22    23   ar
     5    23    24   ar
     6    24    19    1
     7    19    20    1
     8    19    17    1
     9     9    17    1
    10     9    10    1
    11    10    11    1
    12    11    12    1
    13    12     1    1
    14     1     2    2
    15     1     3   am
    16     3     4    1
    17     4     5    1
    18     5     6    1
    19     6    37    1
    20    37    38   ar
    21    38    39   ar
    22    39    40   ar
    23    40    41   ar
    24    41    42   ar
    25     6    29    1
    26    29    30    1
    27    30    31    1
    28    31    32    1
    29    32    33    1
    30    33    34   am
    31    34    35    2
    32     6     7    1
    33     7     8    1
    34    12    13    1
    35    13    14    1
    36    13    15    1
    37    13    16    1
    38    24    25   ar
    39    25    26   ar
    40    26    21   ar
    41    16     9    1
    42     8     3    1
    43    42    37   ar
    44    34    29   am
    45    17    18    1
    46    33    36    1
@<TRIPOS>MOLECULE
*****
 42 46 0 0 0
SMALL
GASTEIGER

@<TRIPOS>ATOM
      1 C         140.1809  144.8190  161.9267 C.2     1  UNL1        0.2251
      2 O         140.0277  146.3026  161.7665 O.2     1  UNL1       -0.2749
      3 N         140.2127  143.9333  160.7165 N.am    1  UNL1       -0.2794
      4 C         140.3660  142.4499  160.8767 C.3     1  UNL1        0.0954
      5 C         140.3978  141.5641  159.6666 C.3     1  UNL1        0.0440
      6 C         140.2764  142.1619  158.2962 C.3     1  UNL1        0.0839
      7 C         140.1232  143.6455  158.1360 C.3     1  UNL1        0.0440
      8 C         140.0913  144.5311  159.3462 C.3     1  UNL1        0.0954
      9 C         140.5451  143.0256  166.0378 C.3     1  UNL1        0.0542
     10 C         141.7643  143.1861  165.1788 C.3     1  UNL1        0.0162
     11 C         141.6429  143.7839  163.8084 C.3     1  UNL1        0.0104
     12 C         140.3023  144.2212  163.2970 C.3     1  UNL1        0.0768
     13 C         139.0831  144.0608  164.1560 C.3     1  UNL1        0.0095
     14 C         137.6487  144.1145  164.5916 C.3     1  UNL1        0.0005
     15 C         138.4635  144.6772  162.9370 C.3     1  UNL1        0.0005
     16 C         139.2045  143.4630  165.5264 C.3     1  UNL1        0.0162
     17 N         140.6665  142.4278  167.4081 N.3     1  UNL1       -0.2962
     18 H         141.6321  142.5673  167.7057 H       1  UNL1        0.1235
     19 C         140.3521  140.9772  167.6241 C.3     1  UNL1        0.0768
     20 C         140.2663  140.4277  169.0172 C.3     1  UNL1        0.0220
     21 C         139.6662  138.2736  164.0928 C.ar    1  UNL1        0.1387
     22 C         141.0586  138.5071  164.5993 C.ar    1  UNL1        0.0366
     23 C         141.2873  139.4083  165.7764 C.ar    1  UNL1        0.0001
     24 C         140.1235  140.0760  166.4470 C.ar    1  UNL1       -0.0078
     25 C         138.7311  139.8424  165.9405 C.ar    1  UNL1        0.0001
     26 C         138.5024  138.9412  164.7634 C.ar    1  UNL1        0.0366
     27 C         139.3596  137.9493  161.5334 C.3     1  UNL1        0.2525
     28 O         139.4376  137.3723  162.9157 O.3     1  UNL1       -0.4714
     29 N         140.4027  140.7110  157.9372 N.am    1  UNL1       -0.2638
     30 C         141.7061  140.1766  157.4217 C.3     1  UNL1        0.0969
     31 C         141.8324  138.7257  157.0628 C.3     1  UNL1        0.0428
     32 C         140.6554  137.8092  157.2192 C.3     1  UNL1        0.0927
     33 N         139.3520  138.3435  157.7347 N.am    1  UNL1       -0.2887
     34 C         139.2257  139.7944  158.0937 C.2     1  UNL1        0.3041
     35 O         137.9223  140.3288  158.6092 O.2     1  UNL1       -0.2526
     36 H         138.5795  137.7419  157.8374 H       1  UNL1        0.1510
     37 C         140.1989  142.2558  156.8012 C.ar    1  UNL1       -0.0059
     38 C         141.4218  142.6084  156.0074 C.ar    1  UNL1       -0.0027
     39 C         141.3442  142.7023  154.5123 C.ar    1  UNL1       -0.0003
     40 C         140.0438  142.4436  153.8111 C.ar    1  UNL1       -0.0000
     41 C         138.8209  142.0910  154.6048 C.ar    1  UNL1       -0.0003
     42 C         138.8984  141.9971  156.0999 C.ar    1  UNL1       -0.0027
@<TRIPOS>BOND
     1    27    28    1
     2    28    21    1
     3    21    22   ar
     4    22    23   ar
     5    23    24   ar
     6    24    19    1
     7    19    20    1
     8    19    17    1
     9     9    17    1
    10     9    10    1
    11    10    11    1
    12    11    12    1
    13    12     1    1
    14     1     2    2
    15     1     3   am
    16     3     4    1
    17     4     5    1
    18     5     6    1
    19     6    37    1
    20    37    38   ar
    21    38    39   ar
    22    39    40   ar
    23    40    41   ar
    24    41    42   ar
    25     6    29    1
    26    29    30    1
    27    30    31    1
    28    31    32    1
    29    32    33    1
    30    33    34   am
    31    34    35    2
    32     6     7    1
    33     7     8    1
    34    12    13    1
    35    13    14    1
    36    13    15    1
    37    13    16    1
    38    24    25   ar
    39    25    26   ar
    40    26    21   ar
    41    16     9    1
    42     8     3    1
    43    42    37   ar
    44    34    29   am
    45    17    18    1
    46    33    36    1
@<TRIPOS>MOLECULE
*****
 42 46 0 0 0
SMALL
GASTEIGER

@<TRIPOS>ATOM
      1 C         140.5199  145.0618  162.1334 C.2     1  UNL1        0.2251
      2 O         140.1718  146.5187  162.0531 O.2     1  UNL1       -0.2749
      3 N         140.8861  144.3084  160.8891 N.am    1  UNL1       -0.2794
      4 C         141.2342  142.8516  160.9695 C.3     1  UNL1        0.0954
      5 C         141.6005  142.0982  159.7251 C.3     1  UNL1        0.0440
      6 C         141.6187  142.8017  158.4005 C.3     1  UNL1        0.0839
      7 C         141.2706  144.2586  158.3201 C.3     1  UNL1        0.0440
      8 C         140.9043  145.0119  159.5644 C.3     1  UNL1        0.0954
      9 C         140.4652  142.9513  166.1074 C.3     1  UNL1        0.0542
     10 C         141.7716  143.2380  165.4284 C.3     1  UNL1        0.0162
     11 C         141.7898  143.9415  164.1037 C.3     1  UNL1        0.0104
     12 C         140.5016  144.3583  163.4581 C.3     1  UNL1        0.0768
     13 C         139.1952  144.0715  164.1371 C.3     1  UNL1        0.0095
     14 C         137.7168  144.0233  164.3861 C.3     1  UNL1        0.0005
     15 C         138.7000  144.7582  162.8989 C.3     1  UNL1        0.0005
     16 C         139.1770  143.3680  165.4618 C.3     1  UNL1        0.0162
     17 N         140.4470  142.2478  167.4321 N.3     1  UNL1       -0.2962
     18 H         141.4036  142.2611  167.7857 H       1  UNL1        0.1235
     19 C         139.9723  140.8276  167.5206 C.3     1  UNL1        0.0768
     20 C         139.5258  140.2669  168.8382 C.3     1  UNL1        0.0220
     21 C         139.8879  138.2494  163.8334 C.ar    1  UNL1        0.1387
     22 C         141.1857  138.5037  164.5412 C.ar    1  UNL1        0.0366
     23 C         141.2138  139.3631  165.7703 C.ar    1  UNL1        0.0001
     24 C         139.9442  139.9682  166.2916 C.ar    1  UNL1       -0.0078
     25 C         138.6464  139.7140  165.5838 C.ar    1  UNL1        0.0001
     26 C         138.6182  138.8546  164.3547 C.ar    1  UNL1        0.0366
     27 C         139.7199  138.0212  161.2509 C.3     1  UNL1        0.2525
     28 O         139.8597  137.3900  162.6043 O.3     1  UNL1       -0.4714
     29 N         142.0217  141.4229  157.9687 N.am    1  UNL1       -0.2638
     30 C         141.0262  140.5281  157.2917 C.3     1  UNL1        0.0969
     31 C         141.4292  139.1492  156.8599 C.3     1  UNL1        0.0428
     32 C         142.8276  138.6652  157.1052 C.3     1  UNL1        0.0927
     33 N         143.8231  139.5601  157.7822 N.am    1  UNL1       -0.2887
     34 C         143.4201  140.9389  158.2140 C.2     1  UNL1        0.3041
     35 O         144.4156  141.8338  158.8910 O.2     1  UNL1       -0.2526
     36 H         144.7409  139.2424  157.9432 H       1  UNL1        0.1510
     37 C         141.7769  143.0264  156.9259 C.ar    1  UNL1       -0.0059
     38 C         140.5747  142.9952  156.0293 C.ar    1  UNL1       -0.0027
     39 C         140.7330  143.2198  154.5546 C.ar    1  UNL1       -0.0003
     40 C         142.0931  143.4757  153.9766 C.ar    1  UNL1       -0.0000
     41 C         143.2953  143.5069  154.8732 C.ar    1  UNL1       -0.0003
     42 C         143.1372  143.2823  156.3478 C.ar    1  UNL1       -0.0027
@<TRIPOS>BOND
     1    27    28    1
     2    28    21    1
     3    21    22   ar
     4    22    23   ar
     5    23    24   ar
     6    24    19    1
     7    19    20    1
     8    19    17    1
     9     9    17    1
    10     9    10    1
    11    10    11    1
    12    11    12    1
    13    12     1    1
    14     1     2    2
    15     1     3   am
    16     3     4    1
    17     4     5    1
    18     5     6    1
    19     6    37    1
    20    37    38   ar
    21    38    39   ar
    22    39    40   ar
    23    40    41   ar
    24    41    42   ar
    25     6    29    1
    26    29    30    1
    27    30    31    1
    28    31    32    1
    29    32    33    1
    30    33    34   am
    31    34    35    2
    32     6     7    1
    33     7     8    1
    34    12    13    1
    35    13    14    1
    36    13    15    1
    37    13    16    1
    38    24    25   ar
    39    25    26   ar
    40    26    21   ar
    41    16     9    1
    42     8     3    1
    43    42    37   ar
    44    34    29   am
    45    17    18    1
    46    33    36    1
@<TRIPOS>MOLECULE
*****
 42 46 0 0 0
SMALL
GASTEIGER

@<TRIPOS>ATOM
      1 C         140.7866  142.4434  157.6068 C.2     1  UNL1        0.2251
      2 O         141.9748  142.1639  156.7349 O.2     1  UNL1       -0.2749
      3 N         140.9765  142.7080  159.0710 N.am    1  UNL1       -0.2794
      4 C         139.7883  142.9874  159.9429 C.3     1  UNL1        0.0954
      5 C         139.9782  143.2520  161.4072 C.3     1  UNL1        0.0440
      6 C         141.3562  143.2371  161.9995 C.3     1  UNL1        0.0839
      7 C         142.5444  142.9576  161.1276 C.3     1  UNL1        0.0440
      8 C         142.3545  142.6931  159.6634 C.3     1  UNL1        0.0954
      9 C         136.6526  142.4881  155.8298 C.3     1  UNL1        0.0542
     10 C         137.1399  141.2748  156.5648 C.3     1  UNL1        0.0162
     11 C         138.5179  141.2599  157.1572 C.3     1  UNL1        0.0104
     12 C         139.4086  142.4583  157.0145 C.3     1  UNL1        0.0768
     13 C         138.9213  143.6718  156.2795 C.3     1  UNL1        0.0095
     14 C         138.9113  145.0457  155.6776 C.3     1  UNL1        0.0005
     15 C         140.2958  144.1340  156.6628 C.3     1  UNL1        0.0005
     16 C         137.5433  143.6867  155.6871 C.3     1  UNL1        0.0162
     17 N         135.2746  142.5030  155.2375 N.3     1  UNL1       -0.2962
     18 H         134.6474  142.8573  155.9597 H       1  UNL1        0.1235
     19 C         134.6665  141.2329  154.7210 C.3     1  UNL1        0.0768
     20 C         135.1226  140.6615  153.4113 C.3     1  UNL1        0.0220
     21 C         131.4737  139.1366  157.1005 C.ar    1  UNL1        0.1387
     22 C         131.1793  140.4550  156.4485 C.ar    1  UNL1        0.0366
     23 C         132.2435  141.1538  155.6553 C.ar    1  UNL1        0.0001
     24 C         133.6022  140.5341  155.5141 C.ar    1  UNL1       -0.0078
     25 C         133.8966  139.2157  156.1661 C.ar    1  UNL1        0.0001
     26 C         132.8324  138.5170  156.9593 C.ar    1  UNL1        0.0366
     27 C         129.2802  139.2247  158.4900 C.3     1  UNL1        0.2525
     28 O         130.4094  138.4379  157.8936 O.3     1  UNL1       -0.4714
     29 N         140.5493  143.5490  163.2249 N.am    1  UNL1       -0.2638
     30 C         140.3299  142.4929  164.2673 C.3     1  UNL1        0.0969
     31 C         139.5230  142.8048  165.4927 C.3     1  UNL1        0.0428
     32 C         138.9354  144.1728  165.6757 C.3     1  UNL1        0.0927
     33 N         139.1548  145.2289  164.6333 N.am    1  UNL1       -0.2887
     34 C         139.9618  144.9170  163.4079 C.2     1  UNL1        0.3041
     35 O         140.1811  145.9731  162.3655 O.2     1  UNL1       -0.2526
     36 H         138.7692  146.1267  164.7534 H       1  UNL1        0.1510
     37 C         142.4539  143.3305  163.0174 C.ar    1  UNL1       -0.0059
     38 C         142.9392  144.6737  163.4759 C.ar    1  UNL1       -0.0027
     39 C         144.0371  144.7671  164.4939 C.ar    1  UNL1       -0.0003
     40 C         144.6495  143.5174  165.0532 C.ar    1  UNL1       -0.0000
     41 C         144.1642  142.1742  164.5947 C.ar    1  UNL1       -0.0003
     42 C         143.0664  142.0807  163.5768 C.ar    1  UNL1       -0.0027
@<TRIPOS>BOND
     1    27    28    1
     2    28    21    1
     3    21    22   ar
     4    22    23   ar
     5    23    24   ar
     6    24    19    1
     7    19    20    1
     8    19    17    1
     9     9    17    1
    10     9    10    1
    11    10    11    1
    12    11    12    1
    13    12     1    1
    14     1     2    2
    15     1     3   am
    16     3     4    1
    17     4     5    1
    18     5     6    1
    19     6    37    1
    20    37    38   ar
    21    38    39   ar
    22    39    40   ar
    23    40    41   ar
    24    41    42   ar
    25     6    29    1
    26    29    30    1
    27    30    31    1
    28    31    32    1
    29    32    33    1
    30    33    34   am
    31    34    35    2
    32     6     7    1
    33     7     8    1
    34    12    13    1
    35    13    14    1
    36    13    15    1
    37    13    16    1
    38    24    25   ar
    39    25    26   ar
    40    26    21   ar
    41    16     9    1
    42     8     3    1
    43    42    37   ar
    44    34    29   am
    45    17    18    1
    46    33    36    1
@<TRIPOS>MOLECULE
*****
 42 46 0 0 0
SMALL
GASTEIGER

@<TRIPOS>ATOM
      1 C         144.8325  141.6699  163.3849 C.2     1  UNL1        0.2251
      2 O         146.3318  141.7135  163.3639 O.2     1  UNL1       -0.2749
      3 N         144.0590  141.8549  162.1132 N.am    1  UNL1       -0.2794
      4 C         142.5598  141.8113  162.1342 C.3     1  UNL1        0.0954
      5 C         141.7861  141.9962  160.8624 C.3     1  UNL1        0.0440
      6 C         142.5118  142.2247  159.5696 C.3     1  UNL1        0.0839
      7 C         144.0110  142.2682  159.5487 C.3     1  UNL1        0.0440
      8 C         144.7846  142.0833  160.8204 C.3     1  UNL1        0.0954
      9 C         142.6556  140.9845  167.2632 C.3     1  UNL1        0.0542
     10 C         143.0093  142.3788  166.8379 C.3     1  UNL1        0.0162
     11 C         143.7350  142.6072  165.5452 C.3     1  UNL1        0.0104
     12 C         144.1069  141.4415  164.6777 C.3     1  UNL1        0.0768
     13 C         143.7531  140.0471  165.1029 C.3     1  UNL1        0.0095
     14 C         143.6375  138.5518  165.0760 C.3     1  UNL1        0.0005
     15 C         144.4386  139.7563  163.8008 C.3     1  UNL1        0.0005
     16 C         143.0275  139.8186  166.3957 C.3     1  UNL1        0.0162
     17 N         141.9300  140.7560  168.5560 N.3     1  UNL1       -0.2962
     18 H         142.3045  139.8956  168.9558 H       1  UNL1        0.1235
     19 C         140.4359  140.6228  168.5641 C.3     1  UNL1        0.0768
     20 C         139.7018  140.4910  169.8654 C.3     1  UNL1        0.0220
     21 C         138.1563  140.6188  164.6842 C.ar    1  UNL1        0.1387
     22 C         138.9028  141.8467  165.1142 C.ar    1  UNL1        0.0366
     23 C         139.6627  141.8481  166.4075 C.ar    1  UNL1        0.0001
     24 C         139.6761  140.6215  167.2708 C.ar    1  UNL1       -0.0078
     25 C         138.9295  139.3936  166.8408 C.ar    1  UNL1        0.0001
     26 C         138.1696  139.3923  165.5475 C.ar    1  UNL1        0.0366
     27 C         137.9100  141.3995  162.2185 C.3     1  UNL1        0.2525
     28 O         137.3964  140.6175  163.3909 O.3     1  UNL1       -0.4714
     29 N         141.0935  142.2654  159.0830 N.am    1  UNL1       -0.2638
     30 C         140.5385  141.1175  158.2928 C.3     1  UNL1        0.0969
     31 C         139.1202  141.1582  157.8062 C.3     1  UNL1        0.0428
     32 C         138.2570  142.3467  158.1097 C.3     1  UNL1        0.0927
     33 N         138.8120  143.4946  158.8999 N.am    1  UNL1       -0.2887
     34 C         140.2303  143.4539  159.3865 C.2     1  UNL1        0.3041
     35 O         140.7853  144.6018  160.1767 O.2     1  UNL1       -0.2526
     36 H         138.2454  144.2747  159.0991 H       1  UNL1        0.1510
     37 C         142.7449  142.4673  158.1079 C.ar    1  UNL1       -0.0059
     38 C         143.2278  141.3510  157.2300 C.ar    1  UNL1       -0.0027
     39 C         143.4609  141.5937  155.7682 C.ar    1  UNL1       -0.0003
     40 C         143.2111  142.9525  155.1843 C.ar    1  UNL1       -0.0000
     41 C         142.7281  144.0688  156.0622 C.ar    1  UNL1       -0.0003
     42 C         142.4950  143.8262  157.5240 C.ar    1  UNL1       -0.0027
@<TRIPOS>BOND
     1    27    28    1
     2    28    21    1
     3    21    22   ar
     4    22    23   ar
     5    23    24   ar
     6    24    19    1
     7    19    20    1
     8    19    17    1
     9     9    17    1
    10     9    10    1
    11    10    11    1
    12    11    12    1
    13    12     1    1
    14     1     2    2
    15     1     3   am
    16     3     4    1
    17     4     5    1
    18     5     6    1
    19     6    37    1
    20    37    38   ar
    21    38    39   ar
    22    39    40   ar
    23    40    41   ar
    24    41    42   ar
    25     6    29    1
    26    29    30    1
    27    30    31    1
    28    31    32    1
    29    32    33    1
    30    33    34   am
    31    34    35    2
    32     6     7    1
    33     7     8    1
    34    12    13    1
    35    13    14    1
    36    13    15    1
    37    13    16    1
    38    24    25   ar
    39    25    26   ar
    40    26    21   ar
    41    16     9    1
    42     8     3    1
    43    42    37   ar
    44    34    29   am
    45    17    18    1
    46    33    36    1
