@<TRIPOS>MOLECULE
*****
 26 28 0 0 0
SMALL
GASTEIGER

@<TRIPOS>ATOM
      1 N         144.2985  140.7410  163.7480 N.3     1  UNL1       -0.2724
      2 C         143.9483  139.7268  164.7963 C.3     1  UNL1        0.0721
      3 C         143.0004  138.6103  164.4726 C.3     1  UNL1        0.0174
      4 C         142.4027  138.5079  163.1006 C.3     1  UNL1        0.0031
      5 C         142.7529  139.5221  162.0524 C.3     1  UNL1        0.0174
      6 C         143.7008  140.6386  162.3761 C.3     1  UNL1        0.0721
      7 C         145.2464  141.8576  164.0717 C.3     1  UNL1        0.0768
      8 C         144.7682  143.0439  164.8552 C.3     1  UNL1        0.0437
      9 C         140.5906  144.6038  164.2516 C.ar    1  UNL1        0.1387
     10 C         140.8241  143.3994  165.1147 C.ar    1  UNL1        0.0366
     11 C         142.2166  142.8795  165.3159 C.ar    1  UNL1       -0.0011
     12 C         143.3757  143.5639  164.6540 C.ar    1  UNL1       -0.0206
     13 C         143.1422  144.7682  163.7909 C.ar    1  UNL1       -0.0011
     14 C         141.7497  145.2882  163.5897 C.ar    1  UNL1        0.0366
     15 O         139.1981  145.1237  164.0504 O.3     1  UNL1       -0.4724
     16 C         138.0339  144.1781  164.0728 C.3     1  UNL1        0.2434
     17 F         136.9831  142.0513  163.0133 F       1  UNL1       -0.2302
     18 C         137.7157  143.3515  162.8622 C.3     1  UNL1        0.2403
     19 C         141.4548  137.3913  162.7769 C.3     1  UNL1        0.0048
     20 C         139.9756  137.6406  162.7729 C.3     1  UNL1        0.0264
     21 C         139.3079  138.2106  163.9892 C.ar    1  UNL1       -0.0222
     22 C         138.8572  137.3007  165.0932 C.ar    1  UNL1       -0.0043
     23 C         138.1895  137.8706  166.3094 C.ar    1  UNL1       -0.0003
     24 C         137.9724  139.3506  166.4217 C.ar    1  UNL1       -0.0000
     25 C         138.4231  140.2606  165.3176 C.ar    1  UNL1       -0.0003
     26 C         139.0908  139.6906  164.1014 C.ar    1  UNL1       -0.0043
@<TRIPOS>BOND
     1    17    18    1
     2    18    16    1
     3    16    15    1
     4    15     9    1
     5     9    10   ar
     6    10    11   ar
     7    11    12   ar
     8    12     8    1
     9     8     7    1
    10     7     1    1
    11     1     2    1
    12     2     3    1
    13     3     4    1
    14     4    19    1
    15    19    20    1
    16    20    21    1
    17    21    22   ar
    18    22    23   ar
    19    23    24   ar
    20    24    25   ar
    21    25    26   ar
    22     4     5    1
    23     5     6    1
    24    12    13   ar
    25    13    14   ar
    26    14     9   ar
    27     6     1    1
    28    26    21   ar
@<TRIPOS>MOLECULE
*****
 26 28 0 0 0
SMALL
GASTEIGER

@<TRIPOS>ATOM
      1 N         140.9383  138.7573  164.8517 N.3     1  UNL1       -0.2724
      2 C         141.1420  139.3517  163.4896 C.3     1  UNL1        0.0721
      3 C         142.5192  139.7390  163.0386 C.3     1  UNL1        0.0174
      4 C         143.6927  139.5318  163.9497 C.3     1  UNL1        0.0031
      5 C         143.4890  138.9374  165.3117 C.3     1  UNL1        0.0174
      6 C         142.1118  138.5502  165.7627 C.3     1  UNL1        0.0721
      7 C         139.5611  138.3701  165.3027 C.3     1  UNL1        0.0768
      8 C         138.6959  139.3688  166.0125 C.3     1  UNL1        0.0437
      9 C         140.5513  142.3733  168.8018 C.ar    1  UNL1        0.1387
     10 C         139.9602  141.1076  169.3483 C.ar    1  UNL1        0.0366
     11 C         139.3417  140.1061  168.4185 C.ar    1  UNL1       -0.0011
     12 C         139.3143  140.3703  166.9422 C.ar    1  UNL1       -0.0206
     13 C         139.9054  141.6359  166.3957 C.ar    1  UNL1       -0.0011
     14 C         140.5239  142.6374  167.3255 C.ar    1  UNL1        0.0366
     15 O         141.1698  143.3748  169.7315 O.3     1  UNL1       -0.4724
     16 C         142.5177  143.1074  170.3329 C.3     1  UNL1        0.2434
     17 F         143.8648  142.5900  168.1724 F       1  UNL1       -0.2302
     18 C         143.5147  142.2645  169.5942 C.3     1  UNL1        0.2403
     19 C         145.0699  139.9190  163.4987 C.3     1  UNL1        0.0048
     20 C         145.6937  141.1882  163.9989 C.3     1  UNL1        0.0264
     21 C         144.9693  142.4924  163.8422 C.ar    1  UNL1       -0.0222
     22 C         144.5203  142.9424  162.4837 C.ar    1  UNL1       -0.0043
     23 C         143.7960  144.2466  162.3270 C.ar    1  UNL1       -0.0003
     24 C         143.5206  145.1006  163.5289 C.ar    1  UNL1       -0.0000
     25 C         143.9696  144.6506  164.8876 C.ar    1  UNL1       -0.0003
     26 C         144.6939  143.3465  165.0443 C.ar    1  UNL1       -0.0043
@<TRIPOS>BOND
     1    17    18    1
     2    18    16    1
     3    16    15    1
     4    15     9    1
     5     9    10   ar
     6    10    11   ar
     7    11    12   ar
     8    12     8    1
     9     8     7    1
    10     7     1    1
    11     1     2    1
    12     2     3    1
    13     3     4    1
    14     4    19    1
    15    19    20    1
    16    20    21    1
    17    21    22   ar
    18    22    23   ar
    19    23    24   ar
    20    24    25   ar
    21    25    26   ar
    22     4     5    1
    23     5     6    1
    24    12    13   ar
    25    13    14   ar
    26    14     9   ar
    27     6     1    1
    28    26    21   ar
@<TRIPOS>MOLECULE
*****
 26 28 0 0 0
SMALL
GASTEIGER

@<TRIPOS>ATOM
      1 N         142.1961  137.8242  164.2030 N.3     1  UNL1       -0.2724
      2 C         142.6251  138.2981  162.8460 C.3     1  UNL1        0.0721
      3 C         143.7170  139.3186  162.7185 C.3     1  UNL1        0.0174
      4 C         144.3799  139.8653  163.9480 C.3     1  UNL1        0.0031
      5 C         143.9509  139.3915  165.3050 C.3     1  UNL1        0.0174
      6 C         142.8590  138.3709  165.4325 C.3     1  UNL1        0.0721
      7 C         141.1042  136.8037  164.3305 C.3     1  UNL1        0.0768
      8 C         139.7588  137.2066  164.8572 C.3     1  UNL1        0.0437
      9 C         137.7208  140.8816  163.2476 C.ar    1  UNL1        0.1387
     10 C         138.1899  140.8472  164.6719 C.ar    1  UNL1        0.0366
     11 C         138.8692  139.6222  165.2084 C.ar    1  UNL1       -0.0011
     12 C         139.0795  138.4316  164.3206 C.ar    1  UNL1       -0.0206
     13 C         138.6104  138.4660  162.8963 C.ar    1  UNL1       -0.0011
     14 C         137.9311  139.6910  162.3598 C.ar    1  UNL1        0.0366
     15 O         137.0415  142.1066  162.7110 O.3     1  UNL1       -0.4724
     16 C         137.8365  143.3514  162.4496 C.3     1  UNL1        0.2434
     17 F         137.4310  144.1524  164.8877 F       1  UNL1       -0.2302
     18 C         137.9125  144.4258  163.4935 C.3     1  UNL1        0.2403
     19 C         145.4718  140.8859  163.8206 C.3     1  UNL1        0.0048
     20 C         145.2854  142.2593  164.3942 C.3     1  UNL1        0.0264
     21 C         144.0452  143.0419  164.0787 C.ar    1  UNL1       -0.0222
     22 C         144.0214  143.9652  162.8968 C.ar    1  UNL1       -0.0043
     23 C         142.7812  144.7477  162.5812 C.ar    1  UNL1       -0.0003
     24 C         141.5649  144.6071  163.4476 C.ar    1  UNL1       -0.0000
     25 C         141.5887  143.6838  164.6296 C.ar    1  UNL1       -0.0003
     26 C         142.8288  142.9012  164.9452 C.ar    1  UNL1       -0.0043
@<TRIPOS>BOND
     1    17    18    1
     2    18    16    1
     3    16    15    1
     4    15     9    1
     5     9    10   ar
     6    10    11   ar
     7    11    12   ar
     8    12     8    1
     9     8     7    1
    10     7     1    1
    11     1     2    1
    12     2     3    1
    13     3     4    1
    14     4    19    1
    15    19    20    1
    16    20    21    1
    17    21    22   ar
    18    22    23   ar
    19    23    24   ar
    20    24    25   ar
    21    25    26   ar
    22     4     5    1
    23     5     6    1
    24    12    13   ar
    25    13    14   ar
    26    14     9   ar
    27     6     1    1
    28    26    21   ar
@<TRIPOS>MOLECULE
*****
 26 28 0 0 0
SMALL
GASTEIGER

@<TRIPOS>ATOM
      1 N         140.4648  139.1135  164.5342 N.3     1  UNL1       -0.2724
      2 C         141.0295  138.8232  163.1752 C.3     1  UNL1        0.0721
      3 C         142.5018  138.9692  162.9280 C.3     1  UNL1        0.0174
      4 C         143.4093  139.4056  164.0398 C.3     1  UNL1        0.0031
      5 C         142.8446  139.6959  165.3987 C.3     1  UNL1        0.0174
      6 C         141.3723  139.5499  165.6459 C.3     1  UNL1        0.0721
      7 C         138.9926  138.9674  164.7815 C.3     1  UNL1        0.0768
      8 C         138.1897  140.1458  165.2469 C.3     1  UNL1        0.0437
      9 C         138.3913  144.0367  162.9952 C.ar    1  UNL1        0.1387
     10 C         137.7161  142.8476  162.3788 C.ar    1  UNL1        0.0366
     11 C         137.6488  141.5506  163.1294 C.ar    1  UNL1       -0.0011
     12 C         138.2569  141.4428  164.4963 C.ar    1  UNL1       -0.0206
     13 C         138.9321  142.6319  165.1127 C.ar    1  UNL1       -0.0011
     14 C         138.9994  143.9289  164.3621 C.ar    1  UNL1        0.0366
     15 O         138.4585  145.3337  162.2446 O.3     1  UNL1       -0.4724
     16 C         139.7882  145.9645  161.9548 C.3     1  UNL1        0.2434
     17 F         141.0182  143.8556  161.0660 F       1  UNL1       -0.2302
     18 C         140.7244  145.3237  160.9735 C.3     1  UNL1        0.2403
     19 C         144.8816  139.5517  163.7925 C.3     1  UNL1        0.0048
     20 C         145.5880  140.8128  164.1936 C.3     1  UNL1        0.0264
     21 C         144.9859  142.1467  163.8648 C.ar    1  UNL1       -0.0222
     22 C         144.7875  142.5476  162.4331 C.ar    1  UNL1       -0.0043
     23 C         144.1854  143.8815  162.1042 C.ar    1  UNL1       -0.0003
     24 C         143.7818  144.8146  163.2071 C.ar    1  UNL1       -0.0000
     25 C         143.9802  144.4137  164.6389 C.ar    1  UNL1       -0.0003
     26 C         144.5822  143.0798  164.9678 C.ar    1  UNL1       -0.0043
@<TRIPOS>BOND
     1    17    18    1
     2    18    16    1
     3    16    15    1
     4    15     9    1
     5     9    10   ar
     6    10    11   ar
     7    11    12   ar
     8    12     8    1
     9     8     7    1
    10     7     1    1
    11     1     2    1
    12     2     3    1
    13     3     4    1
    14     4    19    1
    15    19    20    1
    16    20    21    1
    17    21    22   ar
    18    22    23   ar
    19    23    24   ar
    20    24    25   ar
    21    25    26   ar
    22     4     5    1
    23     5     6    1
    24    12    13   ar
    25    13    14   ar
    26    14     9   ar
    27     6     1    1
    28    26    21   ar
@<TRIPOS>MOLECULE
*****
 26 28 0 0 0
SMALL
GASTEIGER

@<TRIPOS>ATOM
      1 N         138.4738  143.3779  162.5267 N.3     1  UNL1       -0.2724
      2 C         139.0486  142.8985  161.2267 C.3     1  UNL1        0.0721
      3 C         138.7713  141.5023  160.7537 C.3     1  UNL1        0.0174
      4 C         137.9193  140.5855  161.5806 C.3     1  UNL1        0.0031
      5 C         137.3446  141.0649  162.8805 C.3     1  UNL1        0.0174
      6 C         137.6219  142.4611  163.3536 C.3     1  UNL1        0.0721
      7 C         138.7511  144.7741  162.9998 C.3     1  UNL1        0.0768
      8 C         139.5578  144.9979  164.2444 C.3     1  UNL1        0.0437
      9 C         143.7066  143.2868  164.5746 C.ar    1  UNL1        0.1387
     10 C         143.4902  144.6014  163.8855 C.ar    1  UNL1        0.0366
     11 C         142.1073  145.1718  163.7754 C.ar    1  UNL1       -0.0011
     12 C         140.9408  144.4276  164.3544 C.ar    1  UNL1       -0.0206
     13 C         141.1572  143.1130  165.0436 C.ar    1  UNL1       -0.0011
     14 C         142.5401  142.5426  165.1537 C.ar    1  UNL1        0.0366
     15 O         145.0896  142.7164  164.6847 O.3     1  UNL1       -0.4724
     16 C         145.5976  141.7732  163.6348 C.3     1  UNL1        0.2434
     17 F         145.3705  139.2544  164.2299 F       1  UNL1       -0.2302
     18 C         144.9292  140.4457  163.4324 C.3     1  UNL1        0.2403
     19 C         137.6421  139.1893  161.1075 C.3     1  UNL1        0.0048
     20 C         137.9814  138.0195  161.9831 C.3     1  UNL1        0.0264
     21 C         139.2821  137.9939  162.7297 C.ar    1  UNL1       -0.0222
     22 C         139.2867  138.0231  164.2294 C.ar    1  UNL1       -0.0043
     23 C         140.5874  137.9975  164.9761 C.ar    1  UNL1       -0.0003
     24 C         141.8835  137.9427  164.2230 C.ar    1  UNL1       -0.0000
     25 C         141.8790  137.9135  162.7233 C.ar    1  UNL1       -0.0003
     26 C         140.5782  137.9391  161.9766 C.ar    1  UNL1       -0.0043
@<TRIPOS>BOND
     1    17    18    1
     2    18    16    1
     3    16    15    1
     4    15     9    1
     5     9    10   ar
     6    10    11   ar
     7    11    12   ar
     8    12     8    1
     9     8     7    1
    10     7     1    1
    11     1     2    1
    12     2     3    1
    13     3     4    1
    14     4    19    1
    15    19    20    1
    16    20    21    1
    17    21    22   ar
    18    22    23   ar
    19    23    24   ar
    20    24    25   ar
    21    25    26   ar
    22     4     5    1
    23     5     6    1
    24    12    13   ar
    25    13    14   ar
    26    14     9   ar
    27     6     1    1
    28    26    21   ar
@<TRIPOS>MOLECULE
*****
 26 28 0 0 0
SMALL
GASTEIGER

@<TRIPOS>ATOM
      1 N         144.2743  139.9738  164.1040 N.3     1  UNL1       -0.2724
      2 C         143.8645  139.1672  162.9075 C.3     1  UNL1        0.0721
      3 C         142.7249  138.1973  163.0114 C.3     1  UNL1        0.0174
      4 C         141.9952  138.0340  164.3117 C.3     1  UNL1        0.0031
      5 C         142.4050  138.8406  165.5081 C.3     1  UNL1        0.0174
      6 C         143.5445  139.8105  165.4043 C.3     1  UNL1        0.0721
      7 C         145.4138  140.9437  164.0002 C.3     1  UNL1        0.0768
      8 C         145.3468  142.0774  163.0203 C.3     1  UNL1        0.0437
      9 C         141.6959  144.7035  162.8640 C.ar    1  UNL1        0.1387
     10 C         141.7907  143.4973  161.9775 C.ar    1  UNL1        0.0366
     11 C         143.0076  142.6219  162.0296 C.ar    1  UNL1       -0.0011
     12 C         144.1299  142.9528  162.9682 C.ar    1  UNL1       -0.0206
     13 C         144.0351  144.1590  163.8547 C.ar    1  UNL1       -0.0011
     14 C         142.8182  145.0344  163.8026 C.ar    1  UNL1        0.0366
     15 O         140.4790  145.5789  162.8119 O.3     1  UNL1       -0.4724
     16 C         139.1392  145.0243  163.1959 C.3     1  UNL1        0.2434
     17 F         137.4133  144.4433  165.0490 F       1  UNL1       -0.2302
     18 C         138.8192  144.7678  164.6387 C.3     1  UNL1        0.2403
     19 C         140.8556  137.0642  164.4156 C.3     1  UNL1        0.0048
     20 C         139.5218  137.5258  164.9234 C.3     1  UNL1        0.0264
     21 C         138.8801  138.7499  164.3404 C.ar    1  UNL1       -0.0222
     22 C         138.4826  138.7719  162.8942 C.ar    1  UNL1       -0.0043
     23 C         137.8409  139.9960  162.3113 C.ar    1  UNL1       -0.0003
     24 C         137.5968  141.1981  163.1745 C.ar    1  UNL1       -0.0000
     25 C         137.9943  141.1762  164.6208 C.ar    1  UNL1       -0.0003
     26 C         138.6360  139.9521  165.2037 C.ar    1  UNL1       -0.0043
@<TRIPOS>BOND
     1    17    18    1
     2    18    16    1
     3    16    15    1
     4    15     9    1
     5     9    10   ar
     6    10    11   ar
     7    11    12   ar
     8    12     8    1
     9     8     7    1
    10     7     1    1
    11     1     2    1
    12     2     3    1
    13     3     4    1
    14     4    19    1
    15    19    20    1
    16    20    21    1
    17    21    22   ar
    18    22    23   ar
    19    23    24   ar
    20    24    25   ar
    21    25    26   ar
    22     4     5    1
    23     5     6    1
    24    12    13   ar
    25    13    14   ar
    26    14     9   ar
    27     6     1    1
    28    26    21   ar
@<TRIPOS>MOLECULE
*****
 26 28 0 0 0
SMALL
GASTEIGER

@<TRIPOS>ATOM
      1 N         141.6448  137.9371  162.1549 N.3     1  UNL1       -0.2724
      2 C         142.1346  137.7861  163.5647 C.3     1  UNL1        0.0721
      3 C         141.1519  137.6340  164.6878 C.3     1  UNL1        0.0174
      4 C         139.6795  137.6328  164.4010 C.3     1  UNL1        0.0031
      5 C         139.1899  137.7837  162.9912 C.3     1  UNL1        0.0174
      6 C         140.1725  137.9358  161.8682 C.3     1  UNL1        0.0721
      7 C         142.6275  138.0892  161.0319 C.3     1  UNL1        0.0768
      8 C         143.9682  138.7114  161.2876 C.3     1  UNL1        0.0437
      9 C         144.2754  143.1155  162.1592 C.ar    1  UNL1        0.1387
     10 C         143.5362  142.6414  160.9432 C.ar    1  UNL1        0.0366
     11 C         143.4338  141.1734  160.6526 C.ar    1  UNL1       -0.0011
     12 C         144.0706  140.1794  161.5781 C.ar    1  UNL1       -0.0206
     13 C         144.8098  140.6535  162.7941 C.ar    1  UNL1       -0.0011
     14 C         144.9122  142.1216  163.0847 C.ar    1  UNL1        0.0366
     15 O         144.3778  144.5835  162.4497 O.3     1  UNL1       -0.4724
     16 C         143.7151  145.1550  163.6680 C.3     1  UNL1        0.2434
     17 F         141.3723  144.2323  163.0278 F       1  UNL1       -0.2302
     18 C         142.2195  145.2492  163.7336 C.3     1  UNL1        0.2403
     19 C         138.6968  137.4806  165.5240 C.3     1  UNL1        0.0048
     20 C         138.0375  138.6924  166.1131 C.3     1  UNL1        0.0264
     21 C         138.7031  140.0328  166.0104 C.ar    1  UNL1       -0.0222
     22 C         138.3242  140.9758  164.9073 C.ar    1  UNL1       -0.0043
     23 C         138.9897  142.3162  164.8047 C.ar    1  UNL1       -0.0003
     24 C         140.0342  142.7134  165.8052 C.ar    1  UNL1       -0.0000
     25 C         140.4132  141.7704  166.9085 C.ar    1  UNL1       -0.0003
     26 C         139.7476  140.4300  167.0111 C.ar    1  UNL1       -0.0043
@<TRIPOS>BOND
     1    17    18    1
     2    18    16    1
     3    16    15    1
     4    15     9    1
     5     9    10   ar
     6    10    11   ar
     7    11    12   ar
     8    12     8    1
     9     8     7    1
    10     7     1    1
    11     1     2    1
    12     2     3    1
    13     3     4    1
    14     4    19    1
    15    19    20    1
    16    20    21    1
    17    21    22   ar
    18    22    23   ar
    19    23    24   ar
    20    24    25   ar
    21    25    26   ar
    22     4     5    1
    23     5     6    1
    24    12    13   ar
    25    13    14   ar
    26    14     9   ar
    27     6     1    1
    28    26    21   ar
@<TRIPOS>MOLECULE
*****
 26 28 0 0 0
SMALL
GASTEIGER

@<TRIPOS>ATOM
      1 N         140.1629  137.9838  163.5469 N.3     1  UNL1       -0.2724
      2 C         140.3628  138.4493  164.9588 C.3     1  UNL1        0.0721
      3 C         141.7273  138.8610  165.4267 C.3     1  UNL1        0.0174
      4 C         142.8918  138.8071  164.4827 C.3     1  UNL1        0.0031
      5 C         142.6918  138.3416  163.0708 C.3     1  UNL1        0.0174
      6 C         141.3274  137.9299  162.6030 C.3     1  UNL1        0.0721
      7 C         138.7985  137.5722  163.0790 C.3     1  UNL1        0.0768
      8 C         138.1099  138.3508  161.9976 C.3     1  UNL1        0.0437
      9 C         138.0107  142.8461  162.1767 C.ar    1  UNL1        0.1387
     10 C         138.4221  142.1549  160.9106 C.ar    1  UNL1        0.0366
     11 C         138.4551  140.6564  160.8509 C.ar    1  UNL1       -0.0011
     12 C         138.0768  139.8492  162.0573 C.ar    1  UNL1       -0.0206
     13 C         137.6654  140.5405  163.3233 C.ar    1  UNL1       -0.0011
     14 C         137.6324  142.0390  163.3830 C.ar    1  UNL1        0.0366
     15 O         137.9776  144.3446  162.2363 O.3     1  UNL1       -0.4724
     16 C         138.9007  145.0788  163.1629 C.3     1  UNL1        0.2434
     17 F         140.9770  145.1149  161.6015 F       1  UNL1       -0.2302
     18 C         140.3857  144.9828  162.9738 C.3     1  UNL1        0.2403
     19 C         144.2562  139.2187  164.9505 C.3     1  UNL1        0.0048
     20 C         145.1285  140.0625  164.0689 C.3     1  UNL1        0.0264
     21 C         144.7603  141.4906  163.7953 C.ar    1  UNL1       -0.0222
     22 C         144.2434  142.3576  164.9049 C.ar    1  UNL1       -0.0043
     23 C         143.8752  143.7858  164.6313 C.ar    1  UNL1       -0.0003
     24 C         144.0239  144.3469  163.2483 C.ar    1  UNL1       -0.0000
     25 C         144.5409  143.4800  162.1387 C.ar    1  UNL1       -0.0003
     26 C         144.9091  142.0518  162.4122 C.ar    1  UNL1       -0.0043
@<TRIPOS>BOND
     1    17    18    1
     2    18    16    1
     3    16    15    1
     4    15     9    1
     5     9    10   ar
     6    10    11   ar
     7    11    12   ar
     8    12     8    1
     9     8     7    1
    10     7     1    1
    11     1     2    1
    12     2     3    1
    13     3     4    1
    14     4    19    1
    15    19    20    1
    16    20    21    1
    17    21    22   ar
    18    22    23   ar
    19    23    24   ar
    20    24    25   ar
    21    25    26   ar
    22     4     5    1
    23     5     6    1
    24    12    13   ar
    25    13    14   ar
    26    14     9   ar
    27     6     1    1
    28    26    21   ar
@<TRIPOS>MOLECULE
*****
 26 28 0 0 0
SMALL
GASTEIGER

@<TRIPOS>ATOM
      1 N         139.1038  141.5862  164.1705 N.3     1  UNL1       -0.2724
      2 C         139.9029  141.7985  162.9189 C.3     1  UNL1        0.0721
      3 C         140.7916  143.0001  162.7913 C.3     1  UNL1        0.0174
      4 C         140.8812  143.9894  163.9153 C.3     1  UNL1        0.0031
      5 C         140.0821  143.7771  165.1668 C.3     1  UNL1        0.0174
      6 C         139.1934  142.5755  165.2944 C.3     1  UNL1        0.0721
      7 C         138.2150  140.3846  164.2981 C.3     1  UNL1        0.0768
      8 C         138.2740  139.5359  165.5335 C.3     1  UNL1        0.0437
      9 C         141.8628  139.7483  168.2400 C.ar    1  UNL1        0.1387
     10 C         140.4940  140.0280  168.7860 C.ar    1  UNL1        0.0366
     11 C         139.2978  139.9572  167.8839 C.ar    1  UNL1       -0.0011
     12 C         139.4703  139.6067  166.4356 C.ar    1  UNL1       -0.0206
     13 C         140.8390  139.3270  165.8896 C.ar    1  UNL1       -0.0011
     14 C         142.0353  139.3978  166.7918 C.ar    1  UNL1        0.0366
     15 O         143.0591  139.8190  169.1422 O.3     1  UNL1       -0.4724
     16 C         143.2785  141.0273  170.0035 C.3     1  UNL1        0.2434
     17 F         142.8010  142.7202  168.0913 F       1  UNL1       -0.2302
     18 C         143.5009  142.3690  169.3708 C.3     1  UNL1        0.2403
     19 C         141.7699  145.1911  163.7877 C.3     1  UNL1        0.0048
     20 C         143.2529  145.0491  163.9632 C.3     1  UNL1        0.0264
     21 C         143.9076  143.7147  163.7617 C.ar    1  UNL1       -0.0222
     22 C         143.9292  142.7136  164.8785 C.ar    1  UNL1       -0.0043
     23 C         144.5839  141.3791  164.6770 C.ar    1  UNL1       -0.0003
     24 C         145.2171  141.0458  163.3587 C.ar    1  UNL1       -0.0000
     25 C         145.1955  142.0469  162.2418 C.ar    1  UNL1       -0.0003
     26 C         144.5408  143.3814  162.4433 C.ar    1  UNL1       -0.0043
@<TRIPOS>BOND
     1    17    18    1
     2    18    16    1
     3    16    15    1
     4    15     9    1
     5     9    10   ar
     6    10    11   ar
     7    11    12   ar
     8    12     8    1
     9     8     7    1
    10     7     1    1
    11     1     2    1
    12     2     3    1
    13     3     4    1
    14     4    19    1
    15    19    20    1
    16    20    21    1
    17    21    22   ar
    18    22    23   ar
    19    23    24   ar
    20    24    25   ar
    21    25    26   ar
    22     4     5    1
    23     5     6    1
    24    12    13   ar
    25    13    14   ar
    26    14     9   ar
    27     6     1    1
    28    26    21   ar
