@<TRIPOS>MOLECULE
*****
 33 36 0 0 0
SMALL
GASTEIGER

@<TRIPOS>ATOM
      1 N         138.1498  137.4187  162.2973 N.pl3   1  UNL1       -0.3287
      2 C         139.5119  138.0461  162.2641 C.ar    1  UNL1        0.1959
      3 N         140.8207  137.3135  162.2812 N.ar    1  UNL1       -0.2123
      4 C         141.9221  138.3308  162.2357 C.ar    1  UNL1        0.1184
      5 C         143.4157  138.1934  162.2296 C.ar    1  UNL1        0.0271
      6 C         144.2813  139.4174  162.1783 C.ar    1  UNL1        0.0594
      7 C         143.6531  140.7788  162.1330 C.ar    1  UNL1        0.2262
      8 N         142.1595  140.9162  162.1391 N.ar    1  UNL1       -0.1926
      9 C         141.2940  139.6922  162.1904 C.ar    1  UNL1        0.1668
     10 N         139.8044  139.5162  162.2080 N.ar    1  UNL1       -0.2824
     11 H         138.0599  136.4390  162.3339 H       1  UNL1        0.1451
     12 H         137.3458  137.9866  162.2824 H       1  UNL1        0.1451
     13 O         144.5187  142.0028  162.0816 O.3     1  UNL1       -0.4613
     14 C         144.4179  143.0385  163.1619 C.3     1  UNL1        0.1995
     15 C         144.7273  142.8301  164.6148 C.3     1  UNL1        0.0783
     16 C         144.4906  144.1273  165.3298 C.3     1  UNL1        0.1461
     17 O         144.0349  145.1375  164.3188 O.3     1  UNL1       -0.3498
     18 C         143.9900  144.4645  162.9790 C.3     1  UNL1        0.1855
     19 C         138.7861  140.6171  162.1752 C.3     1  UNL1        0.1438
     20 C         137.9333  140.8861  163.3794 C.3     1  UNL1        0.1561
     21 O         136.5295  141.3862  163.2078 O.3     1  UNL1       -0.3780
     22 H         136.1207  141.5074  164.0790 H       1  UNL1        0.2109
     23 C         138.4842  140.6551  164.7554 C.ar    1  UNL1        0.0167
     24 C         138.0779  139.4373  165.5311 C.ar    1  UNL1       -0.0011
     25 C         138.6287  139.2063  166.9071 C.ar    1  UNL1        0.0037
     26 C         139.5858  140.1931  167.5073 C.ar    1  UNL1        0.0722
     27 C         139.9920  141.4109  166.7315 C.ar    1  UNL1        0.0150
     28 C         139.4412  141.6419  165.3555 C.ar    1  UNL1        0.0559
     29 CL        139.8474  142.8598  164.5798 Cl      1  UNL1       -0.0825
     30 C         140.1367  139.9621  168.8832 C.3     1  UNL1        0.4186
     31 F         140.6874  139.7312  170.2592 F       1  UNL1       -0.1659
     32 F         138.7720  140.1809  169.4662 F       1  UNL1       -0.1659
     33 F         141.5012  139.7434  168.3002 F       1  UNL1       -0.1659
@<TRIPOS>BOND
     1     1     2    1
     2     2     3   ar
     3     3     4   ar
     4     4     5   ar
     5     5     6   ar
     6     6     7   ar
     7     7    13    1
     8    13    14    1
     9    14    15    1
    10    15    16    1
    11    16    17    1
    12    17    18    1
    13     7     8   ar
    14     8     9   ar
    15     9    10   ar
    16    10    19    1
    17    19    20    1
    18    20    21    1
    19    20    23    1
    20    23    24   ar
    21    24    25   ar
    22    25    26   ar
    23    26    30    1
    24    30    31    1
    25    30    32    1
    26    30    33    1
    27    26    27   ar
    28    27    28   ar
    29    28    29    1
    30    10     2   ar
    31    28    23   ar
    32     9     4   ar
    33    18    14    1
    34     1    11    1
    35     1    12    1
    36    21    22    1
@<TRIPOS>MOLECULE
*****
 33 36 0 0 0
SMALL
GASTEIGER

@<TRIPOS>ATOM
      1 N         144.0951  145.5061  162.8340 N.pl3   1  UNL1       -0.3287
      2 C         142.7874  144.8887  163.2323 C.ar    1  UNL1        0.1959
      3 N         141.5347  145.6315  163.5913 N.ar    1  UNL1       -0.2123
      4 C         140.4758  144.6219  163.9225 C.ar    1  UNL1        0.1184
      5 C         139.0442  144.7706  164.3446 C.ar    1  UNL1        0.0271
      6 C         138.2109  143.5525  164.6124 C.ar    1  UNL1        0.0594
      7 C         138.8092  142.1857  164.4580 C.ar    1  UNL1        0.2262
      8 N         140.2408  142.0370  164.0358 N.ar    1  UNL1       -0.1926
      9 C         141.0741  143.2551  163.7681 C.ar    1  UNL1        0.1668
     10 N         142.5027  143.4200  163.3415 N.ar    1  UNL1       -0.2824
     11 H         144.1842  146.4856  162.7910 H       1  UNL1        0.1451
     12 H         144.8643  144.9318  162.6155 H       1  UNL1        0.1451
     13 O         137.9758  140.9676  164.7257 O.3     1  UNL1       -0.4613
     14 C         138.5489  139.6009  164.4940 C.3     1  UNL1        0.1995
     15 C         139.2586  138.7582  165.5120 C.3     1  UNL1        0.0783
     16 C         139.6613  137.4735  164.8507 C.3     1  UNL1        0.1461
     17 O         139.2006  137.5222  163.4240 O.3     1  UNL1       -0.3498
     18 C         138.5131  138.8370  163.2036 C.3     1  UNL1        0.1855
     19 C         143.4759  142.3108  163.0716 C.3     1  UNL1        0.1438
     20 C         144.3142  141.7605  164.1870 C.3     1  UNL1        0.1561
     21 O         145.8081  141.7262  164.0558 O.3     1  UNL1       -0.3780
     22 H         146.1945  141.3434  164.8590 H       1  UNL1        0.2109
     23 C         143.6588  141.2445  165.4337 C.ar    1  UNL1        0.0167
     24 C         143.3120  142.1902  166.5452 C.ar    1  UNL1       -0.0011
     25 C         142.6566  141.6742  167.7919 C.ar    1  UNL1        0.0037
     26 C         142.3480  140.2126  167.9270 C.ar    1  UNL1        0.0722
     27 C         142.6948  139.2669  166.8156 C.ar    1  UNL1        0.0150
     28 C         143.3502  139.7829  165.5689 C.ar    1  UNL1        0.0559
     29 CL        143.6970  138.8372  164.4574 Cl      1  UNL1       -0.0825
     30 C         141.6926  139.6965  169.1737 C.3     1  UNL1        0.4186
     31 F         141.0372  139.1803  170.4204 F       1  UNL1       -0.1659
     32 F         142.7508  138.6400  169.2926 F       1  UNL1       -0.1659
     33 F         140.6345  140.7529  169.0548 F       1  UNL1       -0.1659
@<TRIPOS>BOND
     1     1     2    1
     2     2     3   ar
     3     3     4   ar
     4     4     5   ar
     5     5     6   ar
     6     6     7   ar
     7     7    13    1
     8    13    14    1
     9    14    15    1
    10    15    16    1
    11    16    17    1
    12    17    18    1
    13     7     8   ar
    14     8     9   ar
    15     9    10   ar
    16    10    19    1
    17    19    20    1
    18    20    21    1
    19    20    23    1
    20    23    24   ar
    21    24    25   ar
    22    25    26   ar
    23    26    30    1
    24    30    31    1
    25    30    32    1
    26    30    33    1
    27    26    27   ar
    28    27    28   ar
    29    28    29    1
    30    10     2   ar
    31    28    23   ar
    32     9     4   ar
    33    18    14    1
    34     1    11    1
    35     1    12    1
    36    21    22    1
@<TRIPOS>MOLECULE
*****
 33 36 0 0 0
SMALL
GASTEIGER

@<TRIPOS>ATOM
      1 N         138.0848  143.0920  160.9515 N.pl3   1  UNL1       -0.3287
      2 C         138.1961  142.0804  162.0535 C.ar    1  UNL1        0.1959
      3 N         138.4645  140.6147  161.8811 N.ar    1  UNL1       -0.2123
      4 C         138.4929  139.9854  163.2424 C.ar    1  UNL1        0.1184
      5 C         138.7148  138.5710  163.6899 C.ar    1  UNL1        0.0271
      6 C         138.6858  138.2334  165.1511 C.ar    1  UNL1        0.0594
      7 C         138.4350  139.3102  166.1648 C.ar    1  UNL1        0.2262
      8 N         138.2131  140.7245  165.7174 N.ar    1  UNL1       -0.1926
      9 C         138.2421  141.0622  164.2562 C.ar    1  UNL1        0.1668
     10 N         138.0587  142.3569  163.5214 N.ar    1  UNL1       -0.2824
     11 H         138.1908  142.8119  160.0137 H       1  UNL1        0.1451
     12 H         137.9056  144.0360  161.1661 H       1  UNL1        0.1451
     13 O         138.4060  138.9725  167.6261 O.3     1  UNL1       -0.4613
     14 C         139.1576  139.8224  168.6073 C.3     1  UNL1        0.1995
     15 C         140.5518  140.3472  168.4326 C.3     1  UNL1        0.0783
     16 C         140.9028  141.1459  169.6528 C.3     1  UNL1        0.1461
     17 O         139.7253  141.1147  170.5817 O.3     1  UNL1       -0.3498
     18 C         138.6467  140.2968  169.9355 C.3     1  UNL1        0.1855
     19 C         137.7857  143.6936  164.1450 C.3     1  UNL1        0.1438
     20 C         138.8480  144.3735  164.9567 C.3     1  UNL1        0.1561
     21 O         138.4801  145.4886  165.8901 O.3     1  UNL1       -0.3780
     22 H         139.2782  145.8152  166.3343 H       1  UNL1        0.2109
     23 C         140.2784  143.9385  164.8352 C.ar    1  UNL1        0.0167
     24 C         140.8616  142.9893  165.8396 C.ar    1  UNL1       -0.0011
     25 C         142.2920  142.5542  165.7181 C.ar    1  UNL1        0.0037
     26 C         143.1392  143.0684  164.5921 C.ar    1  UNL1        0.0722
     27 C         142.5560  144.0176  163.5876 C.ar    1  UNL1        0.0150
     28 C         141.1256  144.4526  163.7092 C.ar    1  UNL1        0.0559
     29 CL        140.5424  145.4018  162.7048 Cl      1  UNL1       -0.0825
     30 C         144.5696  142.6334  164.4705 C.3     1  UNL1        0.4186
     31 F         146.0000  142.1985  164.3489 F       1  UNL1       -0.1659
     32 F         144.9627  143.6337  165.5168 F       1  UNL1       -0.1659
     33 F         144.1764  141.6331  163.4242 F       1  UNL1       -0.1659
@<TRIPOS>BOND
     1     1     2    1
     2     2     3   ar
     3     3     4   ar
     4     4     5   ar
     5     5     6   ar
     6     6     7   ar
     7     7    13    1
     8    13    14    1
     9    14    15    1
    10    15    16    1
    11    16    17    1
    12    17    18    1
    13     7     8   ar
    14     8     9   ar
    15     9    10   ar
    16    10    19    1
    17    19    20    1
    18    20    21    1
    19    20    23    1
    20    23    24   ar
    21    24    25   ar
    22    25    26   ar
    23    26    30    1
    24    30    31    1
    25    30    32    1
    26    30    33    1
    27    26    27   ar
    28    27    28   ar
    29    28    29    1
    30    10     2   ar
    31    28    23   ar
    32     9     4   ar
    33    18    14    1
    34     1    11    1
    35     1    12    1
    36    21    22    1
@<TRIPOS>MOLECULE
*****
 33 36 0 0 0
SMALL
GASTEIGER

@<TRIPOS>ATOM
      1 N         136.9871  139.1729  161.2756 N.pl3   1  UNL1       -0.3287
      2 C         137.8805  140.2869  161.7346 C.ar    1  UNL1        0.1959
      3 N         137.4581  141.6997  162.0091 N.ar    1  UNL1       -0.2123
      4 C         138.6698  142.4697  162.4439 C.ar    1  UNL1        0.1184
      5 C         138.8579  143.9029  162.8444 C.ar    1  UNL1        0.0271
      6 C         140.2173  144.3991  163.2390 C.ar    1  UNL1        0.0594
      7 C         141.3886  143.4621  163.2332 C.ar    1  UNL1        0.2262
      8 N         141.2005  142.0289  162.8327 N.ar    1  UNL1       -0.1926
      9 C         139.8411  141.5327  162.4381 C.ar    1  UNL1        0.1668
     10 N         139.3533  140.1836  161.9997 N.ar    1  UNL1       -0.2824
     11 H         136.0281  139.3399  161.1283 H       1  UNL1        0.1451
     12 H         137.3596  138.2747  161.1216 H       1  UNL1        0.1451
     13 O         142.7481  143.9584  163.6278 O.3     1  UNL1       -0.4613
     14 C         143.9520  143.0865  163.4276 C.3     1  UNL1        0.1995
     15 C         144.6913  142.3440  164.5010 C.3     1  UNL1        0.0783
     16 C         145.8243  141.6026  163.8556 C.3     1  UNL1        0.1461
     17 O         145.7854  141.8869  162.3832 O.3     1  UNL1       -0.3498
     18 C         144.6282  142.8040  162.1187 C.3     1  UNL1        0.1855
     19 C         140.1912  138.9482  161.8524 C.3     1  UNL1        0.1438
     20 C         140.4872  138.0954  163.0502 C.3     1  UNL1        0.1561
     21 O         141.1598  136.7659  162.8766 O.3     1  UNL1       -0.3780
     22 H         141.2764  136.3468  163.7437 H       1  UNL1        0.2109
     23 C         140.1106  138.5719  164.4218 C.ar    1  UNL1        0.0167
     24 C         138.7087  138.3856  164.9218 C.ar    1  UNL1       -0.0011
     25 C         138.3321  138.8621  166.2934 C.ar    1  UNL1        0.0037
     26 C         139.3574  139.5249  167.1649 C.ar    1  UNL1        0.0722
     27 C         140.7592  139.7112  166.6648 C.ar    1  UNL1        0.0150
     28 C         141.1358  139.2347  165.2932 C.ar    1  UNL1        0.0559
     29 CL        142.5377  139.4210  164.7932 Cl      1  UNL1       -0.0825
     30 C         138.9809  140.0014  168.5364 C.3     1  UNL1        0.4186
     31 F         138.6043  140.4779  169.9080 F       1  UNL1       -0.1659
     32 F         137.7435  139.1548  168.4908 F       1  UNL1       -0.1659
     33 F         140.2182  140.8480  168.5819 F       1  UNL1       -0.1659
@<TRIPOS>BOND
     1     1     2    1
     2     2     3   ar
     3     3     4   ar
     4     4     5   ar
     5     5     6   ar
     6     6     7   ar
     7     7    13    1
     8    13    14    1
     9    14    15    1
    10    15    16    1
    11    16    17    1
    12    17    18    1
    13     7     8   ar
    14     8     9   ar
    15     9    10   ar
    16    10    19    1
    17    19    20    1
    18    20    21    1
    19    20    23    1
    20    23    24   ar
    21    24    25   ar
    22    25    26   ar
    23    26    30    1
    24    30    31    1
    25    30    32    1
    26    30    33    1
    27    26    27   ar
    28    27    28   ar
    29    28    29    1
    30    10     2   ar
    31    28    23   ar
    32     9     4   ar
    33    18    14    1
    34     1    11    1
    35     1    12    1
    36    21    22    1
@<TRIPOS>MOLECULE
*****
 33 36 0 0 0
SMALL
GASTEIGER

@<TRIPOS>ATOM
      1 N         138.0490  137.4595  162.1506 N.pl3   1  UNL1       -0.3287
      2 C         139.4215  138.0646  162.1600 C.ar    1  UNL1        0.1959
      3 N         140.7159  137.3130  162.2583 N.ar    1  UNL1       -0.2123
      4 C         141.8349  138.3115  162.2318 C.ar    1  UNL1        0.1184
      5 C         143.3249  138.1512  162.2973 C.ar    1  UNL1        0.0271
      6 C         144.2120  139.3597  162.2482 C.ar    1  UNL1        0.0594
      7 C         143.6093  140.7285  162.1335 C.ar    1  UNL1        0.2262
      8 N         142.1194  140.8888  162.0680 N.ar    1  UNL1       -0.1926
      9 C         141.2322  139.6803  162.1172 C.ar    1  UNL1        0.1668
     10 N         139.7406  139.5277  162.0728 N.ar    1  UNL1       -0.2824
     11 H         137.9412  136.4829  162.2126 H       1  UNL1        0.1451
     12 H         137.2560  138.0389  162.0823 H       1  UNL1        0.1451
     13 O         144.4966  141.9370  162.0844 O.3     1  UNL1       -0.4613
     14 C         144.3421  143.0229  163.1075 C.3     1  UNL1        0.1995
     15 C         143.7316  144.3731  162.8747 C.3     1  UNL1        0.0783
     16 C         143.7831  145.1340  164.1664 C.3     1  UNL1        0.1461
     17 O         144.4256  144.2541  165.1974 O.3     1  UNL1       -0.3498
     18 C         144.7710  142.9494  164.5430 C.3     1  UNL1        0.1855
     19 C         138.7433  140.6425  161.9609 C.3     1  UNL1        0.1438
     20 C         138.0791  141.1813  163.1931 C.3     1  UNL1        0.1561
     21 O         136.5915  141.3722  163.2209 O.3     1  UNL1       -0.3780
     22 H         136.3270  141.7255  164.0846 H       1  UNL1        0.2109
     23 C         138.9025  141.5293  164.3977 C.ar    1  UNL1        0.0167
     24 C         139.7003  142.7993  164.4194 C.ar    1  UNL1       -0.0011
     25 C         140.5237  143.1473  165.6240 C.ar    1  UNL1        0.0037
     26 C         140.5491  142.2253  166.8069 C.ar    1  UNL1        0.0722
     27 C         139.7513  140.9553  166.7852 C.ar    1  UNL1        0.0150
     28 C         138.9279  140.6073  165.5806 C.ar    1  UNL1        0.0559
     29 CL        138.1301  139.3373  165.5589 Cl      1  UNL1       -0.0825
     30 C         141.3725  142.5732  168.0115 C.3     1  UNL1        0.4186
     31 F         142.1957  142.9211  169.2162 F       1  UNL1       -0.1659
     32 F         140.1286  142.6178  168.8486 F       1  UNL1       -0.1659
     33 F         142.6162  142.5286  167.1743 F       1  UNL1       -0.1659
@<TRIPOS>BOND
     1     1     2    1
     2     2     3   ar
     3     3     4   ar
     4     4     5   ar
     5     5     6   ar
     6     6     7   ar
     7     7    13    1
     8    13    14    1
     9    14    15    1
    10    15    16    1
    11    16    17    1
    12    17    18    1
    13     7     8   ar
    14     8     9   ar
    15     9    10   ar
    16    10    19    1
    17    19    20    1
    18    20    21    1
    19    20    23    1
    20    23    24   ar
    21    24    25   ar
    22    25    26   ar
    23    26    30    1
    24    30    31    1
    25    30    32    1
    26    30    33    1
    27    26    27   ar
    28    27    28   ar
    29    28    29    1
    30    10     2   ar
    31    28    23   ar
    32     9     4   ar
    33    18    14    1
    34     1    11    1
    35     1    12    1
    36    21    22    1
@<TRIPOS>MOLECULE
*****
 33 36 0 0 0
SMALL
GASTEIGER

@<TRIPOS>ATOM
      1 N         144.4706  138.3397  161.8946 N.pl3   1  UNL1       -0.3287
      2 C         144.1120  139.7536  162.2446 C.ar    1  UNL1        0.1959
      3 N         145.0500  140.9240  162.2562 N.ar    1  UNL1       -0.2123
      4 C         144.2701  142.1390  162.6632 C.ar    1  UNL1        0.1184
      5 C         144.6696  143.5732  162.8464 C.ar    1  UNL1        0.0271
      6 C         143.6490  144.5878  163.2695 C.ar    1  UNL1        0.0594
      7 C         142.2290  144.1682  163.5094 C.ar    1  UNL1        0.2262
      8 N         141.8296  142.7340  163.3262 N.ar    1  UNL1       -0.1926
      9 C         142.8501  141.7194  162.9032 C.ar    1  UNL1        0.1668
     10 N         142.7524  140.2452  162.6444 N.ar    1  UNL1       -0.2824
     11 H         145.3954  138.1143  161.6433 H       1  UNL1        0.1451
     12 H         143.7812  137.6373  161.9161 H       1  UNL1        0.1451
     13 O         141.2084  145.1828  163.9325 O.3     1  UNL1       -0.4613
     14 C         139.7523  144.8229  163.9424 C.3     1  UNL1        0.1995
     15 C         138.9537  144.4126  165.1441 C.3     1  UNL1        0.0783
     16 C         137.5470  144.1461  164.6968 C.3     1  UNL1        0.1461
     17 O         137.4762  144.3917  163.2187 O.3     1  UNL1       -0.3498
     18 C         138.8391  144.8100  162.7525 C.3     1  UNL1        0.1855
     19 C         141.5127  139.4092  162.7644 C.3     1  UNL1        0.1438
     20 C         141.3679  138.4412  163.9010 C.3     1  UNL1        0.1561
     21 O         141.4422  136.9653  163.6433 O.3     1  UNL1       -0.3780
     22 H         141.3302  136.4852  164.4787 H       1  UNL1        0.2109
     23 C         141.1489  138.9489  165.2954 C.ar    1  UNL1        0.0167
     24 C         139.7681  139.3172  165.7512 C.ar    1  UNL1       -0.0011
     25 C         139.5490  139.8249  167.1456 C.ar    1  UNL1        0.0037
     26 C         140.7108  139.9643  168.0841 C.ar    1  UNL1        0.0722
     27 C         142.0916  139.5960  167.6283 C.ar    1  UNL1        0.0150
     28 C         142.3106  139.0883  166.2339 C.ar    1  UNL1        0.0559
     29 CL        143.6914  138.7200  165.7781 Cl      1  UNL1       -0.0825
     30 C         140.4918  140.4720  169.4785 C.3     1  UNL1        0.4186
     31 F         140.2729  140.9797  170.8730 F       1  UNL1       -0.1659
     32 F         141.1128  139.2232  170.0306 F       1  UNL1       -0.1659
     33 F         139.8709  141.7208  168.9263 F       1  UNL1       -0.1659
@<TRIPOS>BOND
     1     1     2    1
     2     2     3   ar
     3     3     4   ar
     4     4     5   ar
     5     5     6   ar
     6     6     7   ar
     7     7    13    1
     8    13    14    1
     9    14    15    1
    10    15    16    1
    11    16    17    1
    12    17    18    1
    13     7     8   ar
    14     8     9   ar
    15     9    10   ar
    16    10    19    1
    17    19    20    1
    18    20    21    1
    19    20    23    1
    20    23    24   ar
    21    24    25   ar
    22    25    26   ar
    23    26    30    1
    24    30    31    1
    25    30    32    1
    26    30    33    1
    27    26    27   ar
    28    27    28   ar
    29    28    29    1
    30    10     2   ar
    31    28    23   ar
    32     9     4   ar
    33    18    14    1
    34     1    11    1
    35     1    12    1
    36    21    22    1
@<TRIPOS>MOLECULE
*****
 33 36 0 0 0
SMALL
GASTEIGER

@<TRIPOS>ATOM
      1 N         138.7162  137.5375  162.3156 N.pl3   1  UNL1       -0.3287
      2 C         139.6492  137.9517  163.4146 C.ar    1  UNL1        0.1959
      3 N         141.0092  137.3773  163.6800 N.ar    1  UNL1       -0.2123
      4 C         141.5865  138.0837  164.8707 C.ar    1  UNL1        0.1184
      5 C         142.8961  137.9370  165.5872 C.ar    1  UNL1        0.0271
      6 C         143.2024  138.8012  166.7742 C.ar    1  UNL1        0.0594
      7 C         142.1992  139.8123  167.2448 C.ar    1  UNL1        0.2262
      8 N         140.8896  139.9590  166.5282 N.ar    1  UNL1       -0.1926
      9 C         140.5833  139.0948  165.3412 C.ar    1  UNL1        0.1668
     10 N         139.3860  139.0132  164.4413 N.ar    1  UNL1       -0.2824
     11 H         138.9802  136.8269  161.6874 H       1  UNL1        0.1451
     12 H         137.8398  137.9762  162.2223 H       1  UNL1        0.1451
     13 O         142.5056  140.6766  168.4319 O.3     1  UNL1       -0.4613
     14 C         141.3873  141.2561  169.2463 C.3     1  UNL1        0.1995
     15 C         141.0652  142.7140  169.3905 C.3     1  UNL1        0.0783
     16 C         139.8735  142.8384  170.2929 C.3     1  UNL1        0.1461
     17 O         139.4590  141.4573  170.7065 O.3     1  UNL1       -0.3498
     18 C         140.3946  140.4794  170.0597 C.3     1  UNL1        0.1855
     19 C         138.1436  139.8467  164.5492 C.3     1  UNL1        0.1438
     20 C         138.0222  141.1175  163.7617 C.3     1  UNL1        0.1561
     21 O         136.7175  141.4775  163.1150 O.3     1  UNL1       -0.3780
     22 H         136.8101  142.3231  162.6489 H       1  UNL1        0.2109
     23 C         139.2056  142.0285  163.6208 C.ar    1  UNL1        0.0167
     24 C         139.5269  143.0138  164.7051 C.ar    1  UNL1       -0.0011
     25 C         140.7102  143.9248  164.5642 C.ar    1  UNL1        0.0037
     26 C         141.5723  143.8504  163.3389 C.ar    1  UNL1        0.0722
     27 C         141.2509  142.8651  162.2545 C.ar    1  UNL1        0.0150
     28 C         140.0676  141.9541  162.3955 C.ar    1  UNL1        0.0559
     29 CL        139.7463  140.9688  161.3111 Cl      1  UNL1       -0.0825
     30 C         142.7556  144.7614  163.1978 C.3     1  UNL1        0.4186
     31 F         143.9390  145.6722  163.0567 F       1  UNL1       -0.1659
     32 F         143.3522  143.8294  162.1851 F       1  UNL1       -0.1659
     33 F         142.1590  145.6932  164.2105 F       1  UNL1       -0.1659
@<TRIPOS>BOND
     1     1     2    1
     2     2     3   ar
     3     3     4   ar
     4     4     5   ar
     5     5     6   ar
     6     6     7   ar
     7     7    13    1
     8    13    14    1
     9    14    15    1
    10    15    16    1
    11    16    17    1
    12    17    18    1
    13     7     8   ar
    14     8     9   ar
    15     9    10   ar
    16    10    19    1
    17    19    20    1
    18    20    21    1
    19    20    23    1
    20    23    24   ar
    21    24    25   ar
    22    25    26   ar
    23    26    30    1
    24    30    31    1
    25    30    32    1
    26    30    33    1
    27    26    27   ar
    28    27    28   ar
    29    28    29    1
    30    10     2   ar
    31    28    23   ar
    32     9     4   ar
    33    18    14    1
    34     1    11    1
    35     1    12    1
    36    21    22    1
@<TRIPOS>MOLECULE
*****
 33 36 0 0 0
SMALL
GASTEIGER

@<TRIPOS>ATOM
      1 N         141.8343  145.4804  159.9548 N.pl3   1  UNL1       -0.3287
      2 C         140.9397  144.6056  160.7821 C.ar    1  UNL1        0.1959
      3 N         139.5725  144.9658  161.2832 N.ar    1  UNL1       -0.2123
      4 C         139.0431  143.7999  162.0643 C.ar    1  UNL1        0.1184
      5 C         137.7484  143.5827  162.7899 C.ar    1  UNL1        0.0271
      6 C         137.4936  142.2847  163.4972 C.ar    1  UNL1        0.0594
      7 C         138.5336  141.2039  163.4790 C.ar    1  UNL1        0.2262
      8 N         139.8283  141.4211  162.7534 N.ar    1  UNL1       -0.1926
      9 C         140.0830  142.7191  162.0461 C.ar    1  UNL1        0.1668
     10 N         141.2552  143.2171  161.2536 N.ar    1  UNL1       -0.2824
     11 H         141.5368  146.3818  159.6937 H       1  UNL1        0.1451
     12 H         142.7190  145.1532  159.6729 H       1  UNL1        0.1451
     13 O         138.2788  139.9059  164.1863 O.3     1  UNL1       -0.4613
     14 C         138.5396  139.7905  165.6589 C.3     1  UNL1        0.1995
     15 C         139.5216  140.6057  166.4469 C.3     1  UNL1        0.0783
     16 C         139.4532  140.1587  167.8771 C.3     1  UNL1        0.1461
     17 O         138.4289  139.0670  167.9730 O.3     1  UNL1       -0.3498
     18 C         137.8643  138.8395  166.6021 C.3     1  UNL1        0.1855
     19 C         142.5207  142.4595  160.9805 C.3     1  UNL1        0.1438
     20 C         143.6315  142.4667  161.9884 C.3     1  UNL1        0.1561
     21 O         144.8835  143.2478  161.7193 O.3     1  UNL1       -0.3780
     22 H         145.4947  143.1463  162.4656 H       1  UNL1        0.2109
     23 C         143.4905  141.6928  163.2656 C.ar    1  UNL1        0.0167
     24 C         143.1416  142.4044  164.5392 C.ar    1  UNL1       -0.0011
     25 C         143.0005  141.6305  165.8163 C.ar    1  UNL1        0.0037
     26 C         143.2084  140.1449  165.8200 C.ar    1  UNL1        0.0722
     27 C         143.5573  139.4333  164.5465 C.ar    1  UNL1        0.0150
     28 C         143.6984  140.2073  163.2693 C.ar    1  UNL1        0.0559
     29 CL        144.0473  139.4957  161.9958 Cl      1  UNL1       -0.0825
     30 C         143.0674  139.3709  167.0972 C.3     1  UNL1        0.4186
     31 F         142.9265  138.5969  168.3743 F       1  UNL1       -0.1659
     32 F         143.4450  138.1114  166.3754 F       1  UNL1       -0.1659
     33 F         142.6899  140.6305  167.8188 F       1  UNL1       -0.1659
@<TRIPOS>BOND
     1     1     2    1
     2     2     3   ar
     3     3     4   ar
     4     4     5   ar
     5     5     6   ar
     6     6     7   ar
     7     7    13    1
     8    13    14    1
     9    14    15    1
    10    15    16    1
    11    16    17    1
    12    17    18    1
    13     7     8   ar
    14     8     9   ar
    15     9    10   ar
    16    10    19    1
    17    19    20    1
    18    20    21    1
    19    20    23    1
    20    23    24   ar
    21    24    25   ar
    22    25    26   ar
    23    26    30    1
    24    30    31    1
    25    30    32    1
    26    30    33    1
    27    26    27   ar
    28    27    28   ar
    29    28    29    1
    30    10     2   ar
    31    28    23   ar
    32     9     4   ar
    33    18    14    1
    34     1    11    1
    35     1    12    1
    36    21    22    1
@<TRIPOS>MOLECULE
*****
 33 36 0 0 0
SMALL
GASTEIGER

@<TRIPOS>ATOM
      1 N         144.4734  138.6996  162.1263 N.pl3   1  UNL1       -0.3287
      2 C         144.0067  139.2358  163.4472 C.ar    1  UNL1        0.1959
      3 N         143.1752  138.4979  164.4542 N.ar    1  UNL1       -0.2123
      4 C         142.9442  139.4101  165.6223 C.ar    1  UNL1        0.1184
      5 C         142.1956  139.2236  166.9087 C.ar    1  UNL1        0.0271
      6 C         142.1358  140.3388  167.9101 C.ar    1  UNL1        0.0594
      7 C         142.8245  141.6405  167.6250 C.ar    1  UNL1        0.2262
      8 N         143.5731  141.8270  166.3386 N.ar    1  UNL1       -0.1926
      9 C         143.6329  140.7118  165.3373 C.ar    1  UNL1        0.1668
     10 N         144.2896  140.6041  163.9930 N.ar    1  UNL1       -0.2824
     11 H         144.2351  137.7838  161.8549 H       1  UNL1        0.1451
     12 H         145.0181  139.2636  161.5308 H       1  UNL1        0.1451
     13 O         142.7647  142.7557  168.6265 O.3     1  UNL1       -0.4613
     14 C         141.7136  142.7472  169.6965 C.3     1  UNL1        0.1995
     15 C         140.3565  143.3795  169.6042 C.3     1  UNL1        0.0783
     16 C         139.6391  143.1281  170.8973 C.3     1  UNL1        0.1461
     17 O         140.5529  142.3404  171.7888 O.3     1  UNL1       -0.3498
     18 C         141.8349  142.1050  171.0466 C.3     1  UNL1        0.1855
     19 C         145.0888  141.6764  163.3137 C.3     1  UNL1        0.1438
     20 C         144.4284  142.5926  162.3267 C.3     1  UNL1        0.1561
     21 O         145.1992  143.1038  161.1457 O.3     1  UNL1       -0.3780
     22 H         144.6291  143.6791  160.6120 H       1  UNL1        0.2109
     23 C         142.9972  142.9976  162.5205 C.ar    1  UNL1        0.0167
     24 C         141.9016  142.2269  161.8455 C.ar    1  UNL1       -0.0011
     25 C         140.4704  142.6319  162.0393 C.ar    1  UNL1        0.0037
     26 C         140.1347  143.8078  162.9080 C.ar    1  UNL1        0.0722
     27 C         141.2303  144.5786  163.5829 C.ar    1  UNL1        0.0150
     28 C         142.6615  144.1735  163.3892 C.ar    1  UNL1        0.0559
     29 CL        143.7571  144.9443  164.0641 Cl      1  UNL1       -0.0825
     30 C         138.7035  144.2129  163.1018 C.3     1  UNL1        0.4186
     31 F         137.2724  144.6181  163.2957 F       1  UNL1       -0.1659
     32 F         139.1037  145.0689  164.2668 F       1  UNL1       -0.1659
     33 F         138.3035  143.3569  161.9369 F       1  UNL1       -0.1659
@<TRIPOS>BOND
     1     1     2    1
     2     2     3   ar
     3     3     4   ar
     4     4     5   ar
     5     5     6   ar
     6     6     7   ar
     7     7    13    1
     8    13    14    1
     9    14    15    1
    10    15    16    1
    11    16    17    1
    12    17    18    1
    13     7     8   ar
    14     8     9   ar
    15     9    10   ar
    16    10    19    1
    17    19    20    1
    18    20    21    1
    19    20    23    1
    20    23    24   ar
    21    24    25   ar
    22    25    26   ar
    23    26    30    1
    24    30    31    1
    25    30    32    1
    26    30    33    1
    27    26    27   ar
    28    27    28   ar
    29    28    29    1
    30    10     2   ar
    31    28    23   ar
    32     9     4   ar
    33    18    14    1
    34     1    11    1
    35     1    12    1
    36    21    22    1
