@<TRIPOS>MOLECULE
*****
 26 27 0 0 0
SMALL
GASTEIGER

@<TRIPOS>ATOM
      1 C         139.1222  139.9350  165.2390 C.ar    1  UNL1        0.1327
      2 N         138.2104  138.7921  165.5741 N.ar    1  UNL1       -0.1993
      3 C         137.9209  138.4591  167.0078 C.ar    1  UNL1        0.2148
      4 N         137.0091  137.3161  167.3429 N.pl3   1  UNL1       -0.3274
      5 N         138.5433  139.2689  168.1063 N.ar    1  UNL1       -0.2138
      6 C         139.4552  140.4119  167.7712 C.ar    1  UNL1        0.0899
      7 C         140.0776  141.2217  168.8697 C.ar    1  UNL1        0.0562
      8 C         140.9894  142.3646  168.5346 C.ar    1  UNL1        0.1402
      9 C         141.2789  142.6976  167.1009 C.ar    1  UNL1        0.0371
     10 C         140.6565  141.8878  166.0024 C.ar    1  UNL1        0.0074
     11 C         139.7447  140.7449  166.3375 C.ar    1  UNL1        0.0494
     12 H         136.6006  136.7846  166.6219 H       1  UNL1        0.1452
     13 H         136.8191  137.0975  168.2838 H       1  UNL1        0.1452
     14 N         139.4117  140.2680  163.8054 N.pl3   1  UNL1       -0.3195
     15 H         140.3379  140.2465  163.4723 H       1  UNL1        0.1481
     16 C         138.2900  140.6339  162.8792 C.3     1  UNL1        0.0729
     17 C         137.8018  142.0508  162.8155 C.3     1  UNL1        0.0196
     18 C         137.6940  142.8640  164.0714 C.3     1  UNL1        0.0017
     19 C         138.5397  144.8823  165.4718 C.3     1  UNL1        0.0000
     20 C         138.3266  144.2223  164.1418 C.3     1  UNL1        0.0001
     21 C         137.6565  139.5828  162.0165 C.3     1  UNL1        0.0512
     22 C         138.3816  138.2981  161.7452 C.3     1  UNL1        0.1389
     23 O         138.6269  137.3255  162.8605 O.3     1  UNL1       -0.3819
     24 H         139.2330  137.7206  163.5066 H       1  UNL1        0.2104
     25 O         141.6118  143.1745  169.6331 O.3     1  UNL1       -0.4714
     26 C         142.8832  142.7098  170.2794 C.3     1  UNL1        0.2525
@<TRIPOS>BOND
     1    19    20    1
     2    20    18    1
     3    18    17    1
     4    16    17    1
     5    16    21    1
     6    21    22    1
     7    22    23    1
     8    16    14    1
     9    14     1    1
    10     1     2   ar
    11     2     3   ar
    12     3     4    1
    13     3     5   ar
    14     5     6   ar
    15     6     7   ar
    16     7     8   ar
    17     8    25    1
    18    25    26    1
    19     8     9   ar
    20     9    10   ar
    21    10    11   ar
    22    11     1   ar
    23    11     6   ar
    24    23    24    1
    25    14    15    1
    26     4    12    1
    27     4    13    1
@<TRIPOS>MOLECULE
*****
 26 27 0 0 0
SMALL
GASTEIGER

@<TRIPOS>ATOM
      1 C         139.2231  139.6446  165.4279 C.ar    1  UNL1        0.1327
      2 N         138.1401  138.6954  165.8473 N.ar    1  UNL1       -0.1993
      3 C         137.7938  138.5467  167.2992 C.ar    1  UNL1        0.2148
      4 N         136.7107  137.5974  167.7185 N.pl3   1  UNL1       -0.3274
      5 N         138.5306  139.3473  168.3317 N.ar    1  UNL1       -0.2138
      6 C         139.6137  140.2966  167.9124 C.ar    1  UNL1        0.0899
      7 C         140.3505  141.0971  168.9449 C.ar    1  UNL1        0.0562
      8 C         141.4336  142.0464  168.5256 C.ar    1  UNL1        0.1402
      9 C         141.7798  142.1951  167.0737 C.ar    1  UNL1        0.0371
     10 C         141.0430  141.3945  166.0411 C.ar    1  UNL1        0.0074
     11 C         139.9600  140.4453  166.4605 C.ar    1  UNL1        0.0494
     12 H         136.2271  137.0720  167.0408 H       1  UNL1        0.1452
     13 H         136.4835  137.4998  168.6714 H       1  UNL1        0.1452
     14 N         139.5694  139.7933  163.9760 N.pl3   1  UNL1       -0.3195
     15 H         139.3497  140.6269  163.5004 H       1  UNL1        0.1481
     16 C         140.2504  138.6720  163.2487 C.3     1  UNL1        0.0729
     17 C         141.5167  138.0829  163.7959 C.3     1  UNL1        0.0196
     18 C         142.8196  138.8033  163.6123 C.3     1  UNL1        0.0017
     19 C         143.4069  138.3779  166.1071 C.3     1  UNL1        0.0000
     20 C         143.7556  138.9678  164.7728 C.3     1  UNL1        0.0001
     21 C         139.6650  138.1398  161.9743 C.3     1  UNL1        0.0512
     22 C         138.1771  138.1110  161.7870 C.3     1  UNL1        0.1389
     23 O         137.3824  139.3782  161.8985 O.3     1  UNL1       -0.3819
     24 H         137.4250  139.7074  162.8100 H       1  UNL1        0.2104
     25 O         142.1704  142.8470  169.5581 O.3     1  UNL1       -0.4714
     26 C         143.5965  142.5169  169.8859 C.3     1  UNL1        0.2525
@<TRIPOS>BOND
     1    19    20    1
     2    20    18    1
     3    18    17    1
     4    16    17    1
     5    16    21    1
     6    21    22    1
     7    22    23    1
     8    16    14    1
     9    14     1    1
    10     1     2   ar
    11     2     3   ar
    12     3     4    1
    13     3     5   ar
    14     5     6   ar
    15     6     7   ar
    16     7     8   ar
    17     8    25    1
    18    25    26    1
    19     8     9   ar
    20     9    10   ar
    21    10    11   ar
    22    11     1   ar
    23    11     6   ar
    24    23    24    1
    25    14    15    1
    26     4    12    1
    27     4    13    1
@<TRIPOS>MOLECULE
*****
 26 27 0 0 0
SMALL
GASTEIGER

@<TRIPOS>ATOM
      1 C         141.5246  144.3035  164.0165 C.ar    1  UNL1        0.1327
      2 N         142.6719  144.4090  163.0561 N.ar    1  UNL1       -0.1993
      3 C         143.7619  143.3787  163.0736 C.ar    1  UNL1        0.2148
      4 N         144.9093  143.4843  162.1131 N.pl3   1  UNL1       -0.3274
      5 N         143.7046  142.2428  164.0515 N.ar    1  UNL1       -0.2138
      6 C         142.5572  142.1371  165.0119 C.ar    1  UNL1        0.0899
      7 C         142.4999  141.0012  165.9898 C.ar    1  UNL1        0.0562
      8 C         141.3526  140.8956  166.9502 C.ar    1  UNL1        0.1402
      9 C         140.2626  141.9260  166.9328 C.ar    1  UNL1        0.0371
     10 C         140.3199  143.0619  165.9549 C.ar    1  UNL1        0.0074
     11 C         141.4672  143.1675  164.9945 C.ar    1  UNL1        0.0494
     12 H         144.9469  144.2299  161.4712 H       1  UNL1        0.1452
     13 H         145.6247  142.8081  162.1245 H       1  UNL1        0.1452
     14 N         140.4346  145.3338  163.9990 N.pl3   1  UNL1       -0.3195
     15 H         140.3835  146.0085  164.7141 H       1  UNL1        0.1481
     16 C         139.4225  145.3362  162.8920 C.3     1  UNL1        0.0729
     17 C         138.1624  144.5335  163.0260 C.3     1  UNL1        0.0196
     18 C         138.1737  143.0640  162.7252 C.3     1  UNL1        0.0017
     19 C         138.0822  140.8001  163.9966 C.3     1  UNL1        0.0000
     20 C         137.4489  142.1084  163.6260 C.3     1  UNL1        0.0001
     21 C         139.6704  146.1413  161.6508 C.3     1  UNL1        0.0512
     22 C         140.3244  145.5033  160.4612 C.3     1  UNL1        0.1389
     23 O         141.8201  145.4235  160.3807 O.3     1  UNL1       -0.3819
     24 H         142.1882  146.3180  160.3081 H       1  UNL1        0.2104
     25 O         141.2952  139.7596  167.9282 O.3     1  UNL1       -0.4714
     26 C         141.0648  140.0348  169.3846 C.3     1  UNL1        0.2525
@<TRIPOS>BOND
     1    19    20    1
     2    20    18    1
     3    18    17    1
     4    16    17    1
     5    16    21    1
     6    21    22    1
     7    22    23    1
     8    16    14    1
     9    14     1    1
    10     1     2   ar
    11     2     3   ar
    12     3     4    1
    13     3     5   ar
    14     5     6   ar
    15     6     7   ar
    16     7     8   ar
    17     8    25    1
    18    25    26    1
    19     8     9   ar
    20     9    10   ar
    21    10    11   ar
    22    11     1   ar
    23    11     6   ar
    24    23    24    1
    25    14    15    1
    26     4    12    1
    27     4    13    1
@<TRIPOS>MOLECULE
*****
 26 27 0 0 0
SMALL
GASTEIGER

@<TRIPOS>ATOM
      1 C         139.4042  140.3752  166.4636 C.ar    1  UNL1        0.1327
      2 N         139.2969  139.8479  167.8637 N.ar    1  UNL1       -0.1993
      3 C         140.3539  140.1822  168.8741 C.ar    1  UNL1        0.2148
      4 N         140.2465  139.6549  170.2743 N.pl3   1  UNL1       -0.3274
      5 N         141.5182  141.0438  168.4845 N.ar    1  UNL1       -0.2138
      6 C         141.6256  141.5712  167.0843 C.ar    1  UNL1        0.0899
      7 C         142.7899  142.4328  166.6946 C.ar    1  UNL1        0.0562
      8 C         142.8973  142.9601  165.2945 C.ar    1  UNL1        0.1402
      9 C         141.8403  142.6257  164.2840 C.ar    1  UNL1        0.0371
     10 C         140.6760  141.7641  164.6737 C.ar    1  UNL1        0.0074
     11 C         140.5686  141.2368  166.0738 C.ar    1  UNL1        0.0494
     12 H         139.4822  139.0894  170.5301 H       1  UNL1        0.1452
     13 H         140.9402  139.8743  170.9375 H       1  UNL1        0.1452
     14 N         138.3472  140.0409  165.4531 N.pl3   1  UNL1       -0.3195
     15 H         137.4925  140.5293  165.4549 H       1  UNL1        0.1481
     16 C         138.5926  138.9623  164.4400 C.3     1  UNL1        0.0729
     17 C         139.1801  137.6504  164.8685 C.3     1  UNL1        0.0196
     18 C         140.5270  137.2298  164.3594 C.3     1  UNL1        0.0017
     19 C         142.6217  138.2780  165.4834 C.3     1  UNL1        0.0000
     20 C         141.6598  138.2128  164.3343 C.3     1  UNL1        0.0001
     21 C         138.2503  139.1956  162.9982 C.3     1  UNL1        0.0512
     22 C         137.8324  140.5607  162.5381 C.3     1  UNL1        0.1389
     23 O         136.6581  141.2407  163.1773 O.3     1  UNL1       -0.3819
     24 H         135.8486  140.7463  162.9748 H       1  UNL1        0.2104
     25 O         144.0617  143.8217  164.9047 O.3     1  UNL1       -0.4714
     26 C         143.8455  145.0286  164.0406 C.3     1  UNL1        0.2525
@<TRIPOS>BOND
     1    19    20    1
     2    20    18    1
     3    18    17    1
     4    16    17    1
     5    16    21    1
     6    21    22    1
     7    22    23    1
     8    16    14    1
     9    14     1    1
    10     1     2   ar
    11     2     3   ar
    12     3     4    1
    13     3     5   ar
    14     5     6   ar
    15     6     7   ar
    16     7     8   ar
    17     8    25    1
    18    25    26    1
    19     8     9   ar
    20     9    10   ar
    21    10    11   ar
    22    11     1   ar
    23    11     6   ar
    24    23    24    1
    25    14    15    1
    26     4    12    1
    27     4    13    1
@<TRIPOS>MOLECULE
*****
 26 27 0 0 0
SMALL
GASTEIGER

@<TRIPOS>ATOM
      1 C         138.8675  140.9261  164.9754 C.ar    1  UNL1        0.1327
      2 N         138.9112  142.0286  163.9593 N.ar    1  UNL1       -0.1993
      3 C         139.6482  143.2994  164.2627 C.ar    1  UNL1        0.2148
      4 N         139.6919  144.4019  163.2465 N.pl3   1  UNL1       -0.3274
      5 N         140.3415  143.4676  165.5821 N.ar    1  UNL1       -0.2138
      6 C         140.2979  142.3650  166.5983 C.ar    1  UNL1        0.0899
      7 C         140.9912  142.5332  167.9177 C.ar    1  UNL1        0.0562
      8 C         140.9475  141.4307  168.9338 C.ar    1  UNL1        0.1402
      9 C         140.2105  140.1599  168.6304 C.ar    1  UNL1        0.0371
     10 C         139.5172  139.9917  167.3110 C.ar    1  UNL1        0.0074
     11 C         139.5609  141.0942  166.2949 C.ar    1  UNL1        0.0494
     12 H         139.2368  144.2915  162.3805 H       1  UNL1        0.1452
     13 H         140.1756  145.2360  163.4456 H       1  UNL1        0.1452
     14 N         138.1305  139.6553  164.6720 N.pl3   1  UNL1       -0.3195
     15 H         137.2030  139.5386  164.9806 H       1  UNL1        0.1481
     16 C         138.8067  138.5625  163.8984 C.3     1  UNL1        0.0729
     17 C         139.4687  137.4289  164.6242 C.3     1  UNL1        0.0196
     18 C         140.9624  137.2934  164.6004 C.3     1  UNL1        0.0017
     19 C         142.7474  138.6231  165.9404 C.3     1  UNL1        0.0000
     20 C         141.8282  138.5078  164.7607 C.3     1  UNL1        0.0001
     21 C         138.8210  138.6033  162.3990 C.3     1  UNL1        0.0512
     22 C         137.6313  139.1284  161.6516 C.3     1  UNL1        0.1389
     23 O         137.0872  140.4897  161.9690 O.3     1  UNL1       -0.3819
     24 H         136.7272  140.4921  162.8697 H       1  UNL1        0.2104
     25 O         141.6409  141.5988  170.2533 O.3     1  UNL1       -0.4714
     26 C         142.5654  142.7596  170.4722 C.3     1  UNL1        0.2525
@<TRIPOS>BOND
     1    19    20    1
     2    20    18    1
     3    18    17    1
     4    16    17    1
     5    16    21    1
     6    21    22    1
     7    22    23    1
     8    16    14    1
     9    14     1    1
    10     1     2   ar
    11     2     3   ar
    12     3     4    1
    13     3     5   ar
    14     5     6   ar
    15     6     7   ar
    16     7     8   ar
    17     8    25    1
    18    25    26    1
    19     8     9   ar
    20     9    10   ar
    21    10    11   ar
    22    11     1   ar
    23    11     6   ar
    24    23    24    1
    25    14    15    1
    26     4    12    1
    27     4    13    1
@<TRIPOS>MOLECULE
*****
 26 27 0 0 0
SMALL
GASTEIGER

@<TRIPOS>ATOM
      1 C         142.6949  139.3870  166.3484 C.ar    1  UNL1        0.1327
      2 N         143.0474  138.8161  167.6899 N.ar    1  UNL1       -0.1993
      3 C         142.5381  139.4694  168.9404 C.ar    1  UNL1        0.2148
      4 N         142.8906  138.8984  170.2820 N.pl3   1  UNL1       -0.3274
      5 N         141.6762  140.6937  168.8493 N.ar    1  UNL1       -0.2138
      6 C         141.3237  141.2647  167.5078 C.ar    1  UNL1        0.0899
      7 C         140.4618  142.4889  167.4167 C.ar    1  UNL1        0.0562
      8 C         140.1093  143.0598  166.0752 C.ar    1  UNL1        0.1402
      9 C         140.6186  142.4065  164.8247 C.ar    1  UNL1        0.0371
     10 C         141.4805  141.1822  164.9158 C.ar    1  UNL1        0.0074
     11 C         141.8330  140.6113  166.2573 C.ar    1  UNL1        0.0494
     12 H         143.4563  138.0949  170.3417 H       1  UNL1        0.1452
     13 H         142.5563  139.3272  171.1027 H       1  UNL1        0.1452
     14 N         143.2043  138.7336  165.0979 N.pl3   1  UNL1       -0.3195
     15 H         144.1679  138.7409  164.8961 H       1  UNL1        0.1481
     16 C         142.2456  138.0693  164.1549 C.3     1  UNL1        0.0729
     17 C         141.0689  137.3103  164.6928 C.3     1  UNL1        0.0196
     18 C         139.6749  137.7681  164.3808 C.3     1  UNL1        0.0017
     19 C         138.3308  139.3339  165.9594 C.3     1  UNL1        0.0000
     20 C         138.6807  137.9533  165.4887 C.3     1  UNL1        0.0001
     21 C         142.4635  138.1638  162.6737 C.3     1  UNL1        0.0512
     22 C         143.8531  138.3080  162.1278 C.3     1  UNL1        0.1389
     23 O         144.7293  139.4324  162.5945 O.3     1  UNL1       -0.3819
     24 H         144.3524  140.2778  162.3044 H       1  UNL1        0.2104
     25 O         139.2474  144.2842  165.9841 O.3     1  UNL1       -0.4714
     26 C         138.2850  144.4407  164.8442 C.3     1  UNL1        0.2525
@<TRIPOS>BOND
     1    19    20    1
     2    20    18    1
     3    18    17    1
     4    16    17    1
     5    16    21    1
     6    21    22    1
     7    22    23    1
     8    16    14    1
     9    14     1    1
    10     1     2   ar
    11     2     3   ar
    12     3     4    1
    13     3     5   ar
    14     5     6   ar
    15     6     7   ar
    16     7     8   ar
    17     8    25    1
    18    25    26    1
    19     8     9   ar
    20     9    10   ar
    21    10    11   ar
    22    11     1   ar
    23    11     6   ar
    24    23    24    1
    25    14    15    1
    26     4    12    1
    27     4    13    1
@<TRIPOS>MOLECULE
*****
 26 27 0 0 0
SMALL
GASTEIGER

@<TRIPOS>ATOM
      1 C         141.8012  138.4613  164.1354 C.ar    1  UNL1        0.1327
      2 N         140.9167  138.0285  163.0039 N.ar    1  UNL1       -0.1993
      3 C         139.4256  138.1128  163.1430 C.ar    1  UNL1        0.2148
      4 N         138.5411  137.6800  162.0114 N.pl3   1  UNL1       -0.3274
      5 N         138.8189  138.6300  164.4136 N.ar    1  UNL1       -0.2138
      6 C         139.7033  139.0628  165.5452 C.ar    1  UNL1        0.0899
      7 C         139.0966  139.5799  166.8158 C.ar    1  UNL1        0.0562
      8 C         139.9811  140.0127  167.9473 C.ar    1  UNL1        0.1402
      9 C         141.4723  139.9284  167.8082 C.ar    1  UNL1        0.0371
     10 C         142.0790  139.4113  166.5376 C.ar    1  UNL1        0.0074
     11 C         141.1945  138.9785  165.4061 C.ar    1  UNL1        0.0494
     12 H         138.9393  137.3406  161.1774 H       1  UNL1        0.1452
     13 H         137.5624  137.7354  162.1026 H       1  UNL1        0.1452
     14 N         143.2923  138.3770  163.9963 N.pl3   1  UNL1       -0.3195
     15 H         143.7708  137.5736  164.3043 H       1  UNL1        0.1481
     16 C         144.0545  139.5167  163.3881 C.3     1  UNL1        0.0729
     17 C         144.9669  140.3484  164.2401 C.3     1  UNL1        0.0196
     18 C         145.2652  141.7674  163.8559 C.3     1  UNL1        0.0017
     19 C         143.6031  142.6606  165.6417 C.3     1  UNL1        0.0000
     20 C         144.7386  142.8969  164.6906 C.3     1  UNL1        0.0001
     21 C         143.9043  139.8248  161.9277 C.3     1  UNL1        0.0512
     22 C         143.9687  138.7182  160.9172 C.3     1  UNL1        0.1389
     23 O         143.5060  137.3394  161.2845 O.3     1  UNL1       -0.3819
     24 H         144.0919  136.9723  161.9648 H       1  UNL1        0.2104
     25 O         139.3744  140.5299  169.2180 O.3     1  UNL1       -0.4714
     26 C         140.0099  140.2076  170.5379 C.3     1  UNL1        0.2525
@<TRIPOS>BOND
     1    19    20    1
     2    20    18    1
     3    18    17    1
     4    16    17    1
     5    16    21    1
     6    21    22    1
     7    22    23    1
     8    16    14    1
     9    14     1    1
    10     1     2   ar
    11     2     3   ar
    12     3     4    1
    13     3     5   ar
    14     5     6   ar
    15     6     7   ar
    16     7     8   ar
    17     8    25    1
    18    25    26    1
    19     8     9   ar
    20     9    10   ar
    21    10    11   ar
    22    11     1   ar
    23    11     6   ar
    24    23    24    1
    25    14    15    1
    26     4    12    1
    27     4    13    1
@<TRIPOS>MOLECULE
*****
 26 27 0 0 0
SMALL
GASTEIGER

@<TRIPOS>ATOM
      1 C         140.2820  141.3061  163.7855 C.ar    1  UNL1        0.1327
      2 N         139.5742  140.5496  162.7007 N.ar    1  UNL1       -0.1993
      3 C         138.6289  139.4399  163.0543 C.ar    1  UNL1        0.2148
      4 N         137.9211  138.6834  161.9695 N.pl3   1  UNL1       -0.3274
      5 N         138.3914  139.0867  164.4926 N.ar    1  UNL1       -0.2138
      6 C         139.0992  139.8433  165.5775 C.ar    1  UNL1        0.0899
      7 C         138.8617  139.4901  167.0158 C.ar    1  UNL1        0.0562
      8 C         139.5695  140.2466  168.1005 C.ar    1  UNL1        0.1402
      9 C         140.5148  141.3563  167.7469 C.ar    1  UNL1        0.0371
     10 C         140.7523  141.7095  166.3086 C.ar    1  UNL1        0.0074
     11 C         140.0445  140.9530  165.2239 C.ar    1  UNL1        0.0494
     12 H         138.0770  138.9152  161.0255 H       1  UNL1        0.1452
     13 H         137.3007  137.9551  162.2016 H       1  UNL1        0.1452
     14 N         141.2273  142.4158  163.4319 N.pl3   1  UNL1       -0.3195
     15 H         142.1874  142.2280  163.3211 H       1  UNL1        0.1481
     16 C         140.7099  143.8115  163.2471 C.3     1  UNL1        0.0729
     17 C         139.4299  144.0442  162.5004 C.3     1  UNL1        0.0196
     18 C         138.2221  144.5604  163.2249 C.3     1  UNL1        0.0017
     19 C         138.3071  145.0033  165.7836 C.3     1  UNL1        0.0000
     20 C         137.9437  144.1158  164.6302 C.3     1  UNL1        0.0001
     21 C         141.4724  144.9747  163.8091 C.3     1  UNL1        0.0512
     22 C         142.9723  144.9602  163.8057 C.3     1  UNL1        0.1389
     23 O         143.7230  145.3305  162.5610 O.3     1  UNL1       -0.3819
     24 H         143.5527  144.6694  161.8720 H       1  UNL1        0.2104
     25 O         139.3320  139.8935  169.5389 O.3     1  UNL1       -0.4714
     26 C         140.4403  140.0374  170.5394 C.3     1  UNL1        0.2525
@<TRIPOS>BOND
     1    19    20    1
     2    20    18    1
     3    18    17    1
     4    16    17    1
     5    16    21    1
     6    21    22    1
     7    22    23    1
     8    16    14    1
     9    14     1    1
    10     1     2   ar
    11     2     3   ar
    12     3     4    1
    13     3     5   ar
    14     5     6   ar
    15     6     7   ar
    16     7     8   ar
    17     8    25    1
    18    25    26    1
    19     8     9   ar
    20     9    10   ar
    21    10    11   ar
    22    11     1   ar
    23    11     6   ar
    24    23    24    1
    25    14    15    1
    26     4    12    1
    27     4    13    1
@<TRIPOS>MOLECULE
*****
 26 27 0 0 0
SMALL
GASTEIGER

@<TRIPOS>ATOM
      1 C         139.4545  143.0842  164.5016 C.ar    1  UNL1        0.1327
      2 N         138.6874  142.5631  163.3227 N.ar    1  UNL1       -0.1993
      3 C         138.0997  141.1835  163.3606 C.ar    1  UNL1        0.2148
      4 N         137.3325  140.6624  162.1816 N.pl3   1  UNL1       -0.3274
      5 N         138.2791  140.3251  164.5775 N.ar    1  UNL1       -0.2138
      6 C         139.0463  140.8462  165.7565 C.ar    1  UNL1        0.0899
      7 C         139.2258  139.9878  166.9734 C.ar    1  UNL1        0.0562
      8 C         139.9929  140.5089  168.1523 C.ar    1  UNL1        0.1402
      9 C         140.5806  141.8885  168.1144 C.ar    1  UNL1        0.0371
     10 C         140.4011  142.7469  166.8975 C.ar    1  UNL1        0.0074
     11 C         139.6340  142.2258  165.7186 C.ar    1  UNL1        0.0494
     12 H         137.2147  141.2259  161.3830 H       1  UNL1        0.1452
     13 H         136.9468  139.7570  162.2065 H       1  UNL1        0.1452
     14 N         140.0422  144.4638  164.4636 N.pl3   1  UNL1       -0.3195
     15 H         139.6831  145.1681  165.0503 H       1  UNL1        0.1481
     16 C         141.1769  144.7702  163.5318 C.3     1  UNL1        0.0729
     17 C         142.5930  144.5614  163.9803 C.3     1  UNL1        0.0196
     18 C         143.2582  143.2334  163.7699 C.3     1  UNL1        0.0017
     19 C         143.9210  142.8320  166.2497 C.3     1  UNL1        0.0000
     20 C         143.4521  142.3000  164.9280 C.3     1  UNL1        0.0001
     21 C         140.8956  145.2856  162.1514 C.3     1  UNL1        0.0512
     22 C         139.6314  146.0449  161.8775 C.3     1  UNL1        0.1389
     23 O         138.3005  145.4077  162.1472 O.3     1  UNL1       -0.3819
     24 H         138.1731  144.6578  161.5453 H       1  UNL1        0.2104
     25 O         140.1724  139.6504  169.3693 O.3     1  UNL1       -0.4714
     26 C         141.3263  139.8949  170.2960 C.3     1  UNL1        0.2525
@<TRIPOS>BOND
     1    19    20    1
     2    20    18    1
     3    18    17    1
     4    16    17    1
     5    16    21    1
     6    21    22    1
     7    22    23    1
     8    16    14    1
     9    14     1    1
    10     1     2   ar
    11     2     3   ar
    12     3     4    1
    13     3     5   ar
    14     5     6   ar
    15     6     7   ar
    16     7     8   ar
    17     8    25    1
    18    25    26    1
    19     8     9   ar
    20     9    10   ar
    21    10    11   ar
    22    11     1   ar
    23    11     6   ar
    24    23    24    1
    25    14    15    1
    26     4    12    1
    27     4    13    1
