@<TRIPOS>MOLECULE
*****
 26 29 0 0 0
SMALL
GASTEIGER

@<TRIPOS>ATOM
      1 C         143.8021  141.9760  162.9445 C.2     1  UNL1        0.3270
      2 N         143.5054  142.7421  161.6894 N.2     1  UNL1       -0.0380
      3 C         142.1359  143.3393  161.8238 C.2     1  UNL1        0.2637
      4 C         141.3184  144.1933  160.9006 C.2     1  UNL1        0.2821
      5 N         139.9513  144.6503  161.3154 N.2     1  UNL1       -0.0268
      6 C         139.4017  144.2534  162.6535 C.2     1  UNL1        0.3760
      7 N         138.0966  144.5503  163.3307 N.2     1  UNL1       -0.0306
      8 C         138.1076  143.8797  164.6724 C.2     1  UNL1        0.2361
      9 C         139.4195  143.1684  164.8245 C.2     1  UNL1        0.0583
     10 C         140.2193  143.3993  163.5767 C.2     1  UNL1        0.1203
     11 C         141.5864  142.9423  163.1618 C.3     1  UNL1        0.2596
     12 N         142.6161  142.0997  163.8544 N.pl3   1  UNL1       -0.1887
     13 C         142.4832  141.4883  165.2177 C.3     1  UNL1        0.1605
     14 C         141.8324  140.1464  165.3776 C.3     1  UNL1        0.0466
     15 C         141.6995  139.5349  166.7409 C.3     1  UNL1        0.0041
     16 C         142.2175  140.2654  167.9442 C.3     1  UNL1        0.0013
     17 C         142.8683  141.6074  167.7843 C.3     1  UNL1        0.0041
     18 C         143.0012  142.2188  166.4211 C.3     1  UNL1        0.0466
     19 C         142.0846  139.6540  169.3074 C.3     1  UNL1        0.0162
     20 C         142.5160  140.4241  170.5202 C.3     1  UNL1        0.1054
     21 C         141.5279  141.2805  171.2554 C.1     1  UNL1        0.0731
     22 N         140.5399  142.1368  171.9906 N.1     1  UNL1       -0.1959
     23 C         144.9923  139.7956  163.7056 C.3     1  UNL1        0.0450
     24 C         145.0634  141.2191  163.2379 C.3     1  UNL1        0.2165
     25 O         146.3959  141.8856  163.0637 O.3     1  UNL1       -0.3737
     26 H         146.2641  142.7968  162.7582 H       1  UNL1        0.2111
@<TRIPOS>BOND
     1    24    23    1
     2    24    25    1
     3    24     1    1
     4     1     2    2
     5     2     3    1
     6     3     4    2
     7     4     5    1
     8     5     6    2
     9     6     7    1
    10     7     8    2
    11     8     9    1
    12     9    10    2
    13    10    11    1
    14    11    12    1
    15    13    12    1
    16    13    14    1
    17    14    15    1
    18    15    16    1
    19    16    19    1
    20    19    20    1
    21    20    21    1
    22    21    22    3
    23    16    17    1
    24    17    18    1
    25    12     1    1
    26    18    13    1
    27    11     3    1
    28    10     6    1
    29    25    26    1
@<TRIPOS>MOLECULE
*****
 26 29 0 0 0
SMALL
GASTEIGER

@<TRIPOS>ATOM
      1 C         141.0209  139.4171  162.4524 C.2     1  UNL1        0.3270
      2 N         141.0851  140.0541  161.0959 N.2     1  UNL1       -0.0380
      3 C         141.7737  141.3791  161.2381 C.2     1  UNL1        0.2637
      4 C         142.1184  142.4434  160.2390 C.2     1  UNL1        0.2821
      5 N         142.8244  143.6898  160.6843 N.2     1  UNL1       -0.0268
      6 C         143.1858  143.8717  162.1287 C.2     1  UNL1        0.3760
      7 N         143.8784  144.9848  162.8575 N.2     1  UNL1       -0.0306
      8 C         143.9617  144.6083  164.3071 C.2     1  UNL1        0.2361
      9 C         143.3207  143.2626  164.4742 C.2     1  UNL1        0.0583
     10 C         142.8411  142.8073  163.1278 C.2     1  UNL1        0.1203
     11 C         142.1351  141.5610  162.6825 C.3     1  UNL1        0.2596
     12 N         141.6698  140.3484  163.4330 N.pl3   1  UNL1       -0.1887
     13 C         141.8260  140.1091  164.9055 C.3     1  UNL1        0.1605
     14 C         142.9883  139.3104  165.4164 C.3     1  UNL1        0.0466
     15 C         143.1445  139.0712  166.8890 C.3     1  UNL1        0.0041
     16 C         142.1383  139.6306  167.8506 C.3     1  UNL1        0.0013
     17 C         140.9760  140.4293  167.3396 C.3     1  UNL1        0.0041
     18 C         140.8198  140.6686  165.8671 C.3     1  UNL1        0.0466
     19 C         142.2945  139.3914  169.3231 C.3     1  UNL1        0.0162
     20 C         142.7521  140.5038  170.2193 C.3     1  UNL1        0.1054
     21 C         141.7541  141.2612  171.0441 C.1     1  UNL1        0.0731
     22 N         140.7561  142.0187  171.8688 N.1     1  UNL1       -0.1959
     23 C         138.9459  137.9764  163.0598 C.3     1  UNL1        0.0450
     24 C         140.4142  138.0830  162.7721 C.3     1  UNL1        0.2165
     25 O         141.2759  136.8557  162.8042 O.3     1  UNL1       -0.3737
     26 H         142.1920  137.0982  162.5973 H       1  UNL1        0.2111
@<TRIPOS>BOND
     1    24    23    1
     2    24    25    1
     3    24     1    1
     4     1     2    2
     5     2     3    1
     6     3     4    2
     7     4     5    1
     8     5     6    2
     9     6     7    1
    10     7     8    2
    11     8     9    1
    12     9    10    2
    13    10    11    1
    14    11    12    1
    15    13    12    1
    16    13    14    1
    17    14    15    1
    18    15    16    1
    19    16    19    1
    20    19    20    1
    21    20    21    1
    22    21    22    3
    23    16    17    1
    24    17    18    1
    25    12     1    1
    26    18    13    1
    27    11     3    1
    28    10     6    1
    29    25    26    1
@<TRIPOS>MOLECULE
*****
 26 29 0 0 0
SMALL
GASTEIGER

@<TRIPOS>ATOM
      1 C         139.6065  142.9459  162.3818 C.2     1  UNL1        0.3270
      2 N         140.2624  143.3533  161.0959 N.2     1  UNL1       -0.0380
      3 C         141.7261  143.0429  161.2033 C.2     1  UNL1        0.2637
      4 C         142.8645  143.2285  160.2445 C.2     1  UNL1        0.2821
      5 N         144.2516  142.8147  160.6380 N.2     1  UNL1       -0.0268
      6 C         144.5002  142.2155  161.9904 C.2     1  UNL1        0.3760
      7 N         145.7501  141.7166  162.6528 N.2     1  UNL1       -0.0306
      8 C         145.3841  141.2227  164.0210 C.2     1  UNL1        0.2361
      9 C         143.9080  141.4163  164.2043 C.2     1  UNL1        0.0583
     10 C         143.3617  142.0299  162.9493 C.2     1  UNL1        0.1203
     11 C         141.9746  142.4436  162.5557 C.3     1  UNL1        0.2596
     12 N         140.6647  142.3836  163.2841 N.pl3   1  UNL1       -0.1887
     13 C         140.4505  141.8544  164.6711 C.3     1  UNL1        0.1605
     14 C         140.1576  140.3984  164.8814 C.3     1  UNL1        0.0466
     15 C         139.9434  139.8691  166.2686 C.3     1  UNL1        0.0041
     16 C         140.0222  140.7959  167.4454 C.3     1  UNL1        0.0013
     17 C         140.3151  142.2519  167.2351 C.3     1  UNL1        0.0041
     18 C         140.5293  142.7812  165.8480 C.3     1  UNL1        0.0466
     19 C         139.8080  140.2666  168.8324 C.3     1  UNL1        0.0162
     20 C         139.4779  141.2087  169.9520 C.3     1  UNL1        0.1054
     21 C         140.5597  141.6835  170.8763 C.1     1  UNL1        0.0731
     22 N         141.6414  142.1583  171.8006 N.1     1  UNL1       -0.1959
     23 C         137.3507  141.8634  163.0814 C.3     1  UNL1        0.0450
     24 C         138.1484  143.0776  162.7082 C.3     1  UNL1        0.2165
     25 O         137.4880  144.4236  162.6613 O.3     1  UNL1       -0.3737
     26 H         138.1397  145.0947  162.4049 H       1  UNL1        0.2111
@<TRIPOS>BOND
     1    24    23    1
     2    24    25    1
     3    24     1    1
     4     1     2    2
     5     2     3    1
     6     3     4    2
     7     4     5    1
     8     5     6    2
     9     6     7    1
    10     7     8    2
    11     8     9    1
    12     9    10    2
    13    10    11    1
    14    11    12    1
    15    13    12    1
    16    13    14    1
    17    14    15    1
    18    15    16    1
    19    16    19    1
    20    19    20    1
    21    20    21    1
    22    21    22    3
    23    16    17    1
    24    17    18    1
    25    12     1    1
    26    18    13    1
    27    11     3    1
    28    10     6    1
    29    25    26    1
@<TRIPOS>MOLECULE
*****
 26 29 0 0 0
SMALL
GASTEIGER

@<TRIPOS>ATOM
      1 C         140.4213  138.9023  162.7269 C.2     1  UNL1        0.3270
      2 N         139.6790  139.2865  161.4814 N.2     1  UNL1       -0.0380
      3 C         139.0769  140.6428  161.7005 C.2     1  UNL1        0.2637
      4 C         138.2394  141.5231  160.8210 C.2     1  UNL1        0.2821
      5 N         137.7719  142.8574  161.3224 N.2     1  UNL1       -0.0268
      6 C         138.1421  143.3113  162.7033 C.2     1  UNL1        0.3760
      7 N         137.8299  144.5652  163.4650 N.2     1  UNL1       -0.0306
      8 C         138.4745  144.4597  164.8154 C.2     1  UNL1        0.2361
      9 C         139.1851  143.1407  164.8882 C.2     1  UNL1        0.0583
     10 C         138.9796  142.4309  163.5828 C.2     1  UNL1        0.1203
     11 C         139.4470  141.0967  163.0814 C.3     1  UNL1        0.2596
     12 N         140.2779  140.0210  163.7158 N.pl3   1  UNL1       -0.1887
     13 C         140.8628  140.0576  165.0966 C.3     1  UNL1        0.1605
     14 C         142.3320  140.2957  165.2827 C.3     1  UNL1        0.0466
     15 C         142.9168  140.3322  166.6636 C.3     1  UNL1        0.0041
     16 C         142.0324  140.1307  167.8582 C.3     1  UNL1        0.0013
     17 C         140.5632  139.8926  167.6720 C.3     1  UNL1        0.0041
     18 C         139.9784  139.8560  166.2913 C.3     1  UNL1        0.0466
     19 C         142.6173  140.1673  169.2390 C.3     1  UNL1        0.0162
     20 C         142.6919  141.4649  169.9877 C.3     1  UNL1        0.1054
     21 C         141.6420  141.8062  171.0033 C.1     1  UNL1        0.0731
     22 N         140.5923  142.1475  172.0189 N.1     1  UNL1       -0.1959
     23 C         141.0297  136.8793  164.2394 C.3     1  UNL1        0.0450
     24 C         141.1747  137.6237  162.9452 C.3     1  UNL1        0.2165
     25 O         142.0731  137.0895  161.8693 O.3     1  UNL1       -0.3737
     26 H         142.0526  137.6864  161.1050 H       1  UNL1        0.2111
@<TRIPOS>BOND
     1    24    23    1
     2    24    25    1
     3    24     1    1
     4     1     2    2
     5     2     3    1
     6     3     4    2
     7     4     5    1
     8     5     6    2
     9     6     7    1
    10     7     8    2
    11     8     9    1
    12     9    10    2
    13    10    11    1
    14    11    12    1
    15    13    12    1
    16    13    14    1
    17    14    15    1
    18    15    16    1
    19    16    19    1
    20    19    20    1
    21    20    21    1
    22    21    22    3
    23    16    17    1
    24    17    18    1
    25    12     1    1
    26    18    13    1
    27    11     3    1
    28    10     6    1
    29    25    26    1
@<TRIPOS>MOLECULE
*****
 26 29 0 0 0
SMALL
GASTEIGER

@<TRIPOS>ATOM
      1 C         139.4551  143.3187  163.3524 C.2     1  UNL1        0.3270
      2 N         138.8060  142.8649  162.0785 N.2     1  UNL1       -0.0380
      3 C         139.1288  141.4128  161.8854 C.2     1  UNL1        0.2637
      4 C         138.7597  140.4373  160.8075 C.2     1  UNL1        0.2821
      5 N         139.2392  139.0180  160.8840 N.2     1  UNL1       -0.0268
      6 C         140.0878  138.5744  162.0385 C.2     1  UNL1        0.3760
      7 N         140.7030  137.2500  162.3814 N.2     1  UNL1       -0.0306
      8 C         141.4524  137.4071  163.6712 C.2     1  UNL1        0.2361
      9 C         141.3004  138.8285  164.1256 C.2     1  UNL1        0.0583
     10 C         140.4570  139.5499  163.1165 C.2     1  UNL1        0.1203
     11 C         139.9775  140.9692  163.0399 C.3     1  UNL1        0.2596
     12 N         140.1792  142.1470  163.9465 N.pl3   1  UNL1       -0.1887
     13 C         140.9666  142.1524  165.2232 C.3     1  UNL1        0.1605
     14 C         142.4491  142.3785  165.1891 C.3     1  UNL1        0.0466
     15 C         143.2365  142.3838  166.4658 C.3     1  UNL1        0.0041
     16 C         142.5415  142.1630  167.7766 C.3     1  UNL1        0.0013
     17 C         141.0590  141.9368  167.8107 C.3     1  UNL1        0.0041
     18 C         140.2716  141.9315  166.5340 C.3     1  UNL1        0.0466
     19 C         143.3289  142.1683  169.0532 C.3     1  UNL1        0.0162
     20 C         142.9370  141.2590  170.1799 C.3     1  UNL1        0.1054
     21 C         141.8208  141.6474  171.1037 C.1     1  UNL1        0.0731
     22 N         140.7046  142.0359  172.0274 N.1     1  UNL1       -0.1959
     23 C         138.6379  144.9478  165.2038 C.3     1  UNL1        0.0450
     24 C         139.3914  144.7013  163.9305 C.3     1  UNL1        0.2165
     25 O         140.0813  145.8374  163.2352 O.3     1  UNL1       -0.3737
     26 H         140.5176  145.5088  162.4337 H       1  UNL1        0.2111
@<TRIPOS>BOND
     1    24    23    1
     2    24    25    1
     3    24     1    1
     4     1     2    2
     5     2     3    1
     6     3     4    2
     7     4     5    1
     8     5     6    2
     9     6     7    1
    10     7     8    2
    11     8     9    1
    12     9    10    2
    13    10    11    1
    14    11    12    1
    15    13    12    1
    16    13    14    1
    17    14    15    1
    18    15    16    1
    19    16    19    1
    20    19    20    1
    21    20    21    1
    22    21    22    3
    23    16    17    1
    24    17    18    1
    25    12     1    1
    26    18    13    1
    27    11     3    1
    28    10     6    1
    29    25    26    1
@<TRIPOS>MOLECULE
*****
 26 29 0 0 0
SMALL
GASTEIGER

@<TRIPOS>ATOM
      1 C         143.8570  141.4401  162.8794 C.2     1  UNL1        0.3270
      2 N         143.5797  141.4577  161.4054 N.2     1  UNL1       -0.0380
      3 C         142.3699  140.6080  161.1512 C.2     1  UNL1        0.2637
      4 C         141.6358  140.2584  159.8908 C.2     1  UNL1        0.2821
      5 N         140.4314  139.3661  159.9471 N.2     1  UNL1       -0.0268
      6 C         139.9611  138.8234  161.2641 C.2     1  UNL1        0.3760
      7 N         138.8147  137.9274  161.6286 N.2     1  UNL1       -0.0306
      8 C         138.8403  137.7233  163.1144 C.2     1  UNL1        0.2361
      9 C         140.0025  138.4931  163.6682 C.2     1  UNL1        0.0583
     10 C         140.6952  139.1730  162.5245 C.2     1  UNL1        0.1203
     11 C         141.8996  140.0653  162.4681 C.3     1  UNL1        0.2596
     12 N         142.8187  140.5796  163.5362 N.pl3   1  UNL1       -0.1887
     13 C         142.7173  140.2850  165.0035 C.3     1  UNL1        0.1605
     14 C         142.0372  141.2595  165.9188 C.3     1  UNL1        0.0466
     15 C         141.9358  140.9649  167.3862 C.3     1  UNL1        0.0041
     16 C         142.5145  139.6959  167.9381 C.3     1  UNL1        0.0013
     17 C         143.1946  138.7214  167.0228 C.3     1  UNL1        0.0041
     18 C         143.2960  139.0159  165.5555 C.3     1  UNL1        0.0466
     19 C         142.4130  139.4013  169.4054 C.3     1  UNL1        0.0162
     20 C         141.1157  139.6191  170.1261 C.3     1  UNL1        0.1054
     21 C         140.9373  140.8240  171.0017 C.1     1  UNL1        0.0731
     22 N         140.7590  142.0288  171.8773 N.1     1  UNL1       -0.1959
     23 C         144.6711  143.2284  164.5792 C.3     1  UNL1        0.0450
     24 C         144.9762  142.1571  163.5746 C.3     1  UNL1        0.2165
     25 O         146.4005  141.8028  163.2652 O.3     1  UNL1       -0.3737
     26 H         146.4210  141.0969  162.6002 H       1  UNL1        0.2111
@<TRIPOS>BOND
     1    24    23    1
     2    24    25    1
     3    24     1    1
     4     1     2    2
     5     2     3    1
     6     3     4    2
     7     4     5    1
     8     5     6    2
     9     6     7    1
    10     7     8    2
    11     8     9    1
    12     9    10    2
    13    10    11    1
    14    11    12    1
    15    13    12    1
    16    13    14    1
    17    14    15    1
    18    15    16    1
    19    16    19    1
    20    19    20    1
    21    20    21    1
    22    21    22    3
    23    16    17    1
    24    17    18    1
    25    12     1    1
    26    18    13    1
    27    11     3    1
    28    10     6    1
    29    25    26    1
@<TRIPOS>MOLECULE
*****
 26 29 0 0 0
SMALL
GASTEIGER

@<TRIPOS>ATOM
      1 C         138.8208  139.8049  164.1595 C.2     1  UNL1        0.3270
      2 N         138.0769  139.9000  162.8604 N.2     1  UNL1       -0.0380
      3 C         138.4477  141.1989  162.2079 C.2     1  UNL1        0.2637
      4 C         138.0250  141.8287  160.9139 C.2     1  UNL1        0.2821
      5 N         138.5754  143.1660  160.5156 N.2     1  UNL1       -0.0268
      6 C         139.5485  143.8735  161.4115 C.2     1  UNL1        0.3760
      7 N         140.2544  145.1910  161.2848 N.2     1  UNL1       -0.0306
      8 C         141.1133  145.3753  162.5006 C.2     1  UNL1        0.2361
      9 C         140.9383  144.1719  163.3787 C.2     1  UNL1        0.0583
     10 C         139.9711  143.2437  162.7056 C.2     1  UNL1        0.1203
     11 C         139.4207  141.9064  163.1038 C.3     1  UNL1        0.2596
     12 N         139.6513  141.0448  164.3099 N.pl3   1  UNL1       -0.1887
     13 C         140.5539  141.3667  165.4638 C.3     1  UNL1        0.1605
     14 C         140.0791  142.2792  166.5556 C.3     1  UNL1        0.0466
     15 C         140.9819  142.6011  167.7096 C.3     1  UNL1        0.0041
     16 C         142.3593  142.0105  167.7717 C.3     1  UNL1        0.0013
     17 C         142.8341  141.0981  166.6800 C.3     1  UNL1        0.0041
     18 C         141.9314  140.7762  165.5260 C.3     1  UNL1        0.0466
     19 C         143.2619  142.3325  168.9257 C.3     1  UNL1        0.0162
     20 C         143.1110  141.5965  170.2240 C.3     1  UNL1        0.1054
     21 C         141.9044  141.8317  171.0835 C.1     1  UNL1        0.0731
     22 N         140.6978  142.0668  171.9431 N.1     1  UNL1       -0.1959
     23 C         137.9683  138.8240  166.4092 C.3     1  UNL1        0.0450
     24 C         138.7470  138.6691  165.1365 C.3     1  UNL1        0.2165
     25 O         139.4519  137.3785  164.8409 O.3     1  UNL1       -0.3737
     26 H         139.9039  137.4456  163.9852 H       1  UNL1        0.2111
@<TRIPOS>BOND
     1    24    23    1
     2    24    25    1
     3    24     1    1
     4     1     2    2
     5     2     3    1
     6     3     4    2
     7     4     5    1
     8     5     6    2
     9     6     7    1
    10     7     8    2
    11     8     9    1
    12     9    10    2
    13    10    11    1
    14    11    12    1
    15    13    12    1
    16    13    14    1
    17    14    15    1
    18    15    16    1
    19    16    19    1
    20    19    20    1
    21    20    21    1
    22    21    22    3
    23    16    17    1
    24    17    18    1
    25    12     1    1
    26    18    13    1
    27    11     3    1
    28    10     6    1
    29    25    26    1
@<TRIPOS>MOLECULE
*****
 26 29 0 0 0
SMALL
GASTEIGER

@<TRIPOS>ATOM
      1 C         139.1402  140.0420  166.8546 C.2     1  UNL1        0.3270
      2 N         138.6717  139.4079  168.1307 N.2     1  UNL1       -0.0380
      3 C         139.4342  140.0283  169.2637 C.2     1  UNL1        0.2637
      4 C         139.3943  139.7982  170.7454 C.2     1  UNL1        0.2821
      5 N         140.2940  140.5856  171.6513 N.2     1  UNL1       -0.0268
      6 C         141.2336  141.6032  171.0754 C.2     1  UNL1        0.3760
      7 N         142.2312  142.5231  171.7145 N.2     1  UNL1       -0.0306
      8 C         142.8876  143.3219  170.6277 C.2     1  UNL1        0.2361
      9 C         142.2958  142.8956  169.3170 C.2     1  UNL1        0.0583
     10 C         141.2735  141.8333  169.5937 C.2     1  UNL1        0.1203
     11 C         140.3738  141.0459  168.6879 C.3     1  UNL1        0.2596
     12 N         140.1921  141.0544  167.1989 N.pl3   1  UNL1       -0.1887
     13 C         140.9323  141.9227  166.2253 C.3     1  UNL1        0.1605
     14 C         142.3594  141.6153  165.8806 C.3     1  UNL1        0.0466
     15 C         143.0996  142.4837  164.9069 C.3     1  UNL1        0.0041
     16 C         142.4127  143.6595  164.2780 C.3     1  UNL1        0.0013
     17 C         140.9856  143.9670  164.6227 C.3     1  UNL1        0.0041
     18 C         140.2454  143.0986  165.5963 C.3     1  UNL1        0.0466
     19 C         143.1530  144.5279  163.3043 C.3     1  UNL1        0.0162
     20 C         144.3551  143.9920  162.5849 C.3     1  UNL1        0.1054
     21 C         144.1793  143.1142  161.3813 C.1     1  UNL1        0.0731
     22 N         144.0035  142.2364  160.1777 N.1     1  UNL1       -0.1959
     23 C         139.0931  138.4636  164.7915 C.3     1  UNL1        0.0450
     24 C         138.6438  139.7203  165.4762 C.3     1  UNL1        0.2165
     25 O         137.6980  140.6553  164.7824 O.3     1  UNL1       -0.3737
     26 H         137.5107  141.4124  165.3591 H       1  UNL1        0.2111
@<TRIPOS>BOND
     1    24    23    1
     2    24    25    1
     3    24     1    1
     4     1     2    2
     5     2     3    1
     6     3     4    2
     7     4     5    1
     8     5     6    2
     9     6     7    1
    10     7     8    2
    11     8     9    1
    12     9    10    2
    13    10    11    1
    14    11    12    1
    15    13    12    1
    16    13    14    1
    17    14    15    1
    18    15    16    1
    19    16    19    1
    20    19    20    1
    21    20    21    1
    22    21    22    3
    23    16    17    1
    24    17    18    1
    25    12     1    1
    26    18    13    1
    27    11     3    1
    28    10     6    1
    29    25    26    1
@<TRIPOS>MOLECULE
*****
 26 29 0 0 0
SMALL
GASTEIGER

@<TRIPOS>ATOM
      1 C         142.1163  143.3583  162.9261 C.2     1  UNL1        0.3270
      2 N         142.0665  142.8201  161.5269 N.2     1  UNL1       -0.0380
      3 C         141.7909  141.3477  161.6060 C.2     1  UNL1        0.2637
      4 C         141.6342  140.2976  160.5466 C.2     1  UNL1        0.2821
      5 N         141.3569  138.8755  160.9353 N.2     1  UNL1       -0.0268
      6 C         141.2363  138.5038  162.3835 C.2     1  UNL1        0.3760
      7 N         140.9694  137.1943  163.0647 N.2     1  UNL1       -0.0306
      8 C         140.9612  137.4353  164.5451 C.2     1  UNL1        0.2361
      9 C         141.2230  138.8936  164.7790 C.2     1  UNL1        0.0583
     10 C         141.3930  139.5540  163.4429 C.2     1  UNL1        0.1203
     11 C         141.6703  140.9760  163.0542 C.3     1  UNL1        0.2596
     12 N         141.8714  142.2186  163.8701 N.pl3   1  UNL1       -0.1887
     13 C         141.8342  142.3061  165.3670 C.3     1  UNL1        0.1605
     14 C         143.0726  142.0260  166.1657 C.3     1  UNL1        0.0466
     15 C         143.0353  142.1136  167.6628 C.3     1  UNL1        0.0041
     16 C         141.7596  142.4811  168.3610 C.3     1  UNL1        0.0013
     17 C         140.5212  142.7612  167.5623 C.3     1  UNL1        0.0041
     18 C         140.5585  142.6737  166.0653 C.3     1  UNL1        0.0466
     19 C         141.7224  142.5686  169.8579 C.3     1  UNL1        0.0162
     20 C         141.7834  141.3181  170.6841 C.3     1  UNL1        0.1054
     21 C         140.5676  140.4505  170.8223 C.1     1  UNL1        0.0731
     22 N         139.3519  139.5829  170.9605 N.1     1  UNL1       -0.1959
     23 C         143.6569  145.1673  163.9766 C.3     1  UNL1        0.0450
     24 C         142.3668  144.7856  163.3133 C.3     1  UNL1        0.2165
     25 O         141.3274  145.8312  163.0373 O.3     1  UNL1       -0.3737
     26 H         140.5610  145.4197  162.6080 H       1  UNL1        0.2111
@<TRIPOS>BOND
     1    24    23    1
     2    24    25    1
     3    24     1    1
     4     1     2    2
     5     2     3    1
     6     3     4    2
     7     4     5    1
     8     5     6    2
     9     6     7    1
    10     7     8    2
    11     8     9    1
    12     9    10    2
    13    10    11    1
    14    11    12    1
    15    13    12    1
    16    13    14    1
    17    14    15    1
    18    15    16    1
    19    16    19    1
    20    19    20    1
    21    20    21    1
    22    21    22    3
    23    16    17    1
    24    17    18    1
    25    12     1    1
    26    18    13    1
    27    11     3    1
    28    10     6    1
    29    25    26    1
