@<TRIPOS>MOLECULE
*****
 39 41 0 0 0
SMALL
GASTEIGER

@<TRIPOS>ATOM
      1 C         139.5569  138.9607  160.0723 C.ar    1  UNL1        0.0597
      2 C         139.5708  138.1371  161.3258 C.ar    1  UNL1        0.0422
      3 C         138.9332  138.6647  162.5769 C.ar    1  UNL1        0.1485
      4 C         138.2817  140.0158  162.5744 C.ar    1  UNL1        0.0743
      5 C         138.2678  140.8394  161.3209 C.ar    1  UNL1        0.1417
      6 C         138.9054  140.3119  160.0698 C.ar    1  UNL1        0.0416
      7 N         141.6787  138.2233  158.7669 N.am    1  UNL1       -0.2644
      8 C         140.1945  138.4332  158.8212 C.2     1  UNL1        0.2508
      9 O         139.3478  138.1157  157.6244 O.2     1  UNL1       -0.2698
     10 H         142.2344  138.4317  159.5523 H       1  UNL1        0.1566
     11 N         142.9719  136.2182  155.7053 N.ar    1  UNL1       -0.2382
     12 C         143.6230  137.5500  155.4756 C.ar    1  UNL1        0.0987
     13 C         143.2177  138.4632  156.5945 C.ar    1  UNL1        0.0565
     14 C         142.3163  137.6958  157.5157 C.ar    1  UNL1        0.1557
     15 N         142.1644  136.3084  156.9662 N.ar    1  UNL1       -0.1535
     16 C         143.1051  135.0088  154.8282 C.3     1  UNL1        0.2135
     17 P         142.7537  133.6521  155.3629 P.3     1  UNL1        0.2472
     18 C         142.4023  132.2954  155.8976 C.3     1  UNL1        0.0992
     19 O         141.4303  133.7179  154.6598 O.2     1  UNL1       -0.2875
     20 O         144.0771  133.5863  156.0660 O.3     1  UNL1       -0.3120
     21 C         145.3470  132.3380  157.9578 C.3     1  UNL1        0.0351
     22 C         144.1491  133.1075  157.4857 C.3     1  UNL1        0.1494
     23 O         138.9470  137.8410  163.8305 O.3     1  UNL1       -0.4534
     24 C         139.1940  138.4975  165.1565 C.ar    1  UNL1        0.1454
     25 C         140.5471  139.0624  165.4732 C.ar    1  UNL1        0.0388
     26 C         140.7941  139.7189  166.7991 C.ar    1  UNL1        0.0215
     27 C         139.6881  139.8103  167.8083 C.ar    1  UNL1        0.1059
     28 C         138.3351  139.2454  167.4916 C.ar    1  UNL1        0.0215
     29 C         138.0881  138.5889  166.1656 C.ar    1  UNL1        0.0388
     30 S         139.9351  140.4667  169.1342 S.O2    1  UNL1        0.0105
     31 C         140.1821  141.1232  170.4602 C.3     1  UNL1        0.1816
     32 O         138.6662  139.8694  169.6663 O.2     1  UNL1       -0.1686
     33 O         141.2039  141.0641  168.6021 O.2     1  UNL1       -0.1686
     34 O         137.6164  142.1906  161.3184 O.3     1  UNL1       -0.4765
     35 C         138.3033  143.3556  161.9671 C.3     1  UNL1        0.1954
     36 C         137.6942  144.0094  163.1719 C.3     1  UNL1        0.0500
     37 C         139.5992  143.8668  161.4110 C.3     1  UNL1        0.1855
     38 O         139.6422  145.1885  160.7030 O.3     1  UNL1       -0.3473
     39 C         140.5039  145.3604  159.4872 C.3     1  UNL1        0.1743
@<TRIPOS>BOND
     1    21    22    1
     2    22    20    1
     3    20    17    1
     4    17    18    1
     5    17    19    2
     6    17    16    1
     7    16    11    1
     8    11    12   ar
     9    12    13   ar
    10    13    14   ar
    11    14     7    1
    12     7     8   am
    13     8     9    2
    14     8     1    1
    15     1     2   ar
    16     2     3   ar
    17     3    23    1
    18    23    24    1
    19    24    25   ar
    20    25    26   ar
    21    26    27   ar
    22    27    30    1
    23    30    31    1
    24    30    32    2
    25    30    33    2
    26    27    28   ar
    27    28    29   ar
    28     3     4   ar
    29     4     5   ar
    30     5    34    1
    31    34    35    1
    32    35    36    1
    33    35    37    1
    34    37    38    1
    35    38    39    1
    36     5     6   ar
    37    14    15   ar
    38    15    11   ar
    39     6     1   ar
    40    29    24   ar
    41     7    10    1
@<TRIPOS>MOLECULE
*****
 39 41 0 0 0
SMALL
GASTEIGER

@<TRIPOS>ATOM
      1 C         143.6999  139.8028  160.6622 C.ar    1  UNL1        0.0597
      2 C         143.5393  138.9269  161.8692 C.ar    1  UNL1        0.0422
      3 C         143.7114  139.5040  163.2430 C.ar    1  UNL1        0.1485
      4 C         144.0442  140.9571  163.4097 C.ar    1  UNL1        0.0743
      5 C         144.2049  141.8330  162.2027 C.ar    1  UNL1        0.1417
      6 C         144.0327  141.2559  160.8290 C.ar    1  UNL1        0.0416
      7 N         142.6197  138.0507  159.0769 N.am    1  UNL1       -0.2644
      8 C         143.5277  139.2257  159.2884 C.2     1  UNL1        0.2508
      9 O         144.2637  139.8236  158.1261 O.2     1  UNL1       -0.2698
     10 H         142.1367  137.6582  159.8398 H       1  UNL1        0.1566
     11 N         142.6003  135.9942  155.7850 N.ar    1  UNL1       -0.2382
     12 C         141.7648  137.1768  155.3930 C.ar    1  UNL1        0.0987
     13 C         141.6704  138.0911  156.5785 C.ar    1  UNL1        0.0565
     14 C         142.4475  137.4735  157.7031 C.ar    1  UNL1        0.1557
     15 N         143.0222  136.1777  157.2127 N.ar    1  UNL1       -0.1535
     16 C         142.9521  134.8324  154.9041 C.3     1  UNL1        0.2135
     17 P         142.5241  133.4460  155.2845 P.3     1  UNL1        0.2472
     18 C         142.0960  132.0596  155.6650 C.3     1  UNL1        0.0992
     19 O         141.1165  133.7694  154.8792 O.2     1  UNL1       -0.2875
     20 O         143.9316  133.1226  155.6899 O.3     1  UNL1       -0.3120
     21 C         144.9810  132.8398  158.0497 C.3     1  UNL1        0.0351
     22 C         144.1876  132.2819  156.9055 C.3     1  UNL1        0.1494
     23 O         143.5508  138.6281  164.4501 O.3     1  UNL1       -0.4534
     24 C         142.6432  139.0499  165.5674 C.ar    1  UNL1        0.1454
     25 C         143.1913  139.2274  166.9524 C.ar    1  UNL1        0.0388
     26 C         142.2837  139.6492  168.0697 C.ar    1  UNL1        0.0215
     27 C         140.8281  139.8935  167.8020 C.ar    1  UNL1        0.1059
     28 C         140.2801  139.7160  166.4170 C.ar    1  UNL1        0.0215
     29 C         141.1877  139.2942  165.2997 C.ar    1  UNL1        0.0388
     30 S         139.9205  140.3153  168.9193 S.O2    1  UNL1        0.0105
     31 C         139.0129  140.7371  170.0366 C.3     1  UNL1        0.1816
     32 O         138.8321  139.4455  168.3636 O.2     1  UNL1       -0.1686
     33 O         141.0089  141.1852  169.4750 O.2     1  UNL1       -0.1686
     34 O         144.5377  143.2861  162.3695 O.3     1  UNL1       -0.4765
     35 C         143.4609  144.2653  162.7320 C.3     1  UNL1        0.1954
     36 C         143.6047  145.1188  163.9571 C.3     1  UNL1        0.0500
     37 C         142.2401  144.3912  161.8694 C.3     1  UNL1        0.1855
     38 O         142.3798  144.4599  160.3775 O.3     1  UNL1       -0.3473
     39 C         141.3077  145.1086  159.5529 C.3     1  UNL1        0.1743
@<TRIPOS>BOND
     1    21    22    1
     2    22    20    1
     3    20    17    1
     4    17    18    1
     5    17    19    2
     6    17    16    1
     7    16    11    1
     8    11    12   ar
     9    12    13   ar
    10    13    14   ar
    11    14     7    1
    12     7     8   am
    13     8     9    2
    14     8     1    1
    15     1     2   ar
    16     2     3   ar
    17     3    23    1
    18    23    24    1
    19    24    25   ar
    20    25    26   ar
    21    26    27   ar
    22    27    30    1
    23    30    31    1
    24    30    32    2
    25    30    33    2
    26    27    28   ar
    27    28    29   ar
    28     3     4   ar
    29     4     5   ar
    30     5    34    1
    31    34    35    1
    32    35    36    1
    33    35    37    1
    34    37    38    1
    35    38    39    1
    36     5     6   ar
    37    14    15   ar
    38    15    11   ar
    39     6     1   ar
    40    29    24   ar
    41     7    10    1
@<TRIPOS>MOLECULE
*****
 39 41 0 0 0
SMALL
GASTEIGER

@<TRIPOS>ATOM
      1 C         139.4299  139.3714  160.6491 C.ar    1  UNL1        0.0597
      2 C         139.3568  138.5274  161.8870 C.ar    1  UNL1        0.0422
      3 C         138.6842  139.0584  163.1180 C.ar    1  UNL1        0.1485
      4 C         138.0846  140.4333  163.1113 C.ar    1  UNL1        0.0743
      5 C         138.1577  141.2773  161.8734 C.ar    1  UNL1        0.1417
      6 C         138.8303  140.7463  160.6423 C.ar    1  UNL1        0.0416
      7 N         141.5970  138.7206  159.3723 N.am    1  UNL1       -0.2644
      8 C         140.1025  138.8404  159.4180 C.2     1  UNL1        0.2508
      9 O         139.2806  138.4292  158.2325 O.2     1  UNL1       -0.2698
     10 H         142.1364  138.9905  160.1504 H       1  UNL1        0.1566
     11 N         143.3164  136.6864  156.5490 N.ar    1  UNL1       -0.2382
     12 C         143.2930  138.0589  155.9442 C.ar    1  UNL1        0.0987
     13 C         142.6460  138.9881  156.9283 C.ar    1  UNL1        0.0565
     14 C         142.2696  138.1897  158.1411 C.ar    1  UNL1        0.1557
     15 N         142.6839  136.7672  157.9067 N.ar    1  UNL1       -0.1535
     16 C         143.8742  135.4502  155.9084 C.3     1  UNL1        0.2135
     17 P         142.9771  134.2817  155.6257 P.3     1  UNL1        0.2472
     18 C         142.0800  133.1132  155.3430 C.3     1  UNL1        0.0992
     19 O         143.3460  133.6785  156.9487 O.2     1  UNL1       -0.2875
     20 O         142.6082  134.8849  154.3028 O.3     1  UNL1       -0.3120
     21 C         140.4156  136.2775  154.3548 C.3     1  UNL1        0.0351
     22 C         141.1647  135.0494  153.9300 C.3     1  UNL1        0.1494
     23 O         138.6110  138.2144  164.3560 O.3     1  UNL1       -0.4534
     24 C         139.0172  138.7892  165.6806 C.ar    1  UNL1        0.1454
     25 C         138.0178  138.8839  166.7952 C.ar    1  UNL1        0.0388
     26 C         138.4239  139.4587  168.1199 C.ar    1  UNL1        0.0215
     27 C         139.8294  139.9388  168.3299 C.ar    1  UNL1        0.1059
     28 C         140.8288  139.8441  167.2153 C.ar    1  UNL1        0.0215
     29 C         140.4226  139.2693  165.8907 C.ar    1  UNL1        0.0388
     30 S         140.2356  140.5136  169.6545 S.O2    1  UNL1        0.0105
     31 C         140.6417  141.0885  170.9791 C.3     1  UNL1        0.1816
     32 O         138.7917  140.6869  170.0220 O.2     1  UNL1       -0.1686
     33 O         141.6795  140.3404  169.2870 O.2     1  UNL1       -0.1686
     34 O         137.5582  142.6523  161.8666 O.3     1  UNL1       -0.4765
     35 C         138.2047  143.7562  162.6497 C.3     1  UNL1        0.1954
     36 C         137.6541  144.1478  163.9889 C.3     1  UNL1        0.0500
     37 C         139.4019  144.4687  162.0936 C.3     1  UNL1        0.1855
     38 O         140.1090  145.5031  162.9181 O.3     1  UNL1       -0.3473
     39 C         141.5692  145.3482  163.2246 C.3     1  UNL1        0.1743
@<TRIPOS>BOND
     1    21    22    1
     2    22    20    1
     3    20    17    1
     4    17    18    1
     5    17    19    2
     6    17    16    1
     7    16    11    1
     8    11    12   ar
     9    12    13   ar
    10    13    14   ar
    11    14     7    1
    12     7     8   am
    13     8     9    2
    14     8     1    1
    15     1     2   ar
    16     2     3   ar
    17     3    23    1
    18    23    24    1
    19    24    25   ar
    20    25    26   ar
    21    26    27   ar
    22    27    30    1
    23    30    31    1
    24    30    32    2
    25    30    33    2
    26    27    28   ar
    27    28    29   ar
    28     3     4   ar
    29     4     5   ar
    30     5    34    1
    31    34    35    1
    32    35    36    1
    33    35    37    1
    34    37    38    1
    35    38    39    1
    36     5     6   ar
    37    14    15   ar
    38    15    11   ar
    39     6     1   ar
    40    29    24   ar
    41     7    10    1
@<TRIPOS>MOLECULE
*****
 39 41 0 0 0
SMALL
GASTEIGER

@<TRIPOS>ATOM
      1 C         142.1028  140.3540  160.5813 C.ar    1  UNL1        0.0597
      2 C         141.2320  139.7830  161.6609 C.ar    1  UNL1        0.0422
      3 C         140.5645  140.6951  162.6469 C.ar    1  UNL1        0.1485
      4 C         140.7677  142.1783  162.5534 C.ar    1  UNL1        0.0743
      5 C         141.6385  142.7494  161.4738 C.ar    1  UNL1        0.1417
      6 C         142.3060  141.8373  160.4877 C.ar    1  UNL1        0.0416
      7 N         142.0932  139.1163  158.2970 N.am    1  UNL1       -0.2644
      8 C         142.7704  139.4419  159.5952 C.2     1  UNL1        0.2508
      9 O         144.1152  138.8553  159.9073 O.2     1  UNL1       -0.2698
     10 H         141.2105  139.5013  158.0921 H       1  UNL1        0.1566
     11 N         143.5473  136.2053  156.1810 N.ar    1  UNL1       -0.2382
     12 C         144.0288  137.3959  155.4058 C.ar    1  UNL1        0.0987
     13 C         143.5427  138.6313  156.1041 C.ar    1  UNL1        0.0565
     14 C         142.7608  138.2042  157.3108 C.ar    1  UNL1        0.1557
     15 N         142.7636  136.7049  157.3583 N.ar    1  UNL1       -0.1535
     16 C         143.8043  134.7678  155.8389 C.3     1  UNL1        0.2135
     17 P         142.6533  133.8264  155.6412 P.3     1  UNL1        0.2472
     18 C         141.5023  132.8851  155.4436 C.3     1  UNL1        0.0992
     19 O         141.9629  134.8496  154.7888 O.2     1  UNL1       -0.2875
     20 O         143.3437  132.8032  156.4936 O.3     1  UNL1       -0.3120
     21 C         145.3734  132.3467  158.0497 C.3     1  UNL1        0.0351
     22 C         144.2567  133.2415  157.6000 C.3     1  UNL1        0.1494
     23 O         139.6937  140.1241  163.7266 O.3     1  UNL1       -0.4534
     24 C         140.1877  140.0769  165.1421 C.ar    1  UNL1        0.1454
     25 C         139.2089  140.0863  166.2788 C.ar    1  UNL1        0.0388
     26 C         139.7030  140.0391  167.6943 C.ar    1  UNL1        0.0215
     27 C         141.1758  139.9826  167.9732 C.ar    1  UNL1        0.1059
     28 C         142.1545  139.9732  166.8365 C.ar    1  UNL1        0.0215
     29 C         141.6605  140.0204  165.4210 C.ar    1  UNL1        0.0388
     30 S         141.6699  139.9354  169.3887 S.O2    1  UNL1        0.0105
     31 C         142.1639  139.8883  170.8042 C.3     1  UNL1        0.1816
     32 O         143.0680  140.1909  168.9092 O.2     1  UNL1       -0.1686
     33 O         140.2717  139.6800  169.8682 O.2     1  UNL1       -0.1686
     34 O         141.8417  144.2326  161.3802 O.3     1  UNL1       -0.4765
     35 C         141.1981  145.1426  162.3840 C.3     1  UNL1        0.1954
     36 C         141.8728  145.4076  163.6972 C.3     1  UNL1        0.0500
     37 C         139.8796  145.7877  162.0745 C.3     1  UNL1        0.1855
     38 O         138.6312  144.9575  162.0272 O.3     1  UNL1       -0.3473
     39 C         138.0300  144.4340  163.2979 C.3     1  UNL1        0.1743
@<TRIPOS>BOND
     1    21    22    1
     2    22    20    1
     3    20    17    1
     4    17    18    1
     5    17    19    2
     6    17    16    1
     7    16    11    1
     8    11    12   ar
     9    12    13   ar
    10    13    14   ar
    11    14     7    1
    12     7     8   am
    13     8     9    2
    14     8     1    1
    15     1     2   ar
    16     2     3   ar
    17     3    23    1
    18    23    24    1
    19    24    25   ar
    20    25    26   ar
    21    26    27   ar
    22    27    30    1
    23    30    31    1
    24    30    32    2
    25    30    33    2
    26    27    28   ar
    27    28    29   ar
    28     3     4   ar
    29     4     5   ar
    30     5    34    1
    31    34    35    1
    32    35    36    1
    33    35    37    1
    34    37    38    1
    35    38    39    1
    36     5     6   ar
    37    14    15   ar
    38    15    11   ar
    39     6     1   ar
    40    29    24   ar
    41     7    10    1
@<TRIPOS>MOLECULE
*****
 39 41 0 0 0
SMALL
GASTEIGER

@<TRIPOS>ATOM
      1 C         143.4387  140.4106  159.5521 C.ar    1  UNL1        0.0597
      2 C         144.1381  140.0058  160.8158 C.ar    1  UNL1        0.0422
      3 C         144.3381  141.0059  161.9157 C.ar    1  UNL1        0.1485
      4 C         143.8387  142.4108  161.7519 C.ar    1  UNL1        0.0743
      5 C         143.1393  142.8156  160.4882 C.ar    1  UNL1        0.1417
      6 C         142.9393  141.8155  159.3883 C.ar    1  UNL1        0.0416
      7 N         142.2620  138.2860  158.6294 N.am    1  UNL1       -0.2644
      8 C         143.2387  139.4105  158.4522 C.2     1  UNL1        0.2508
      9 O         144.0154  139.5351  157.1750 O.2     1  UNL1       -0.2698
     10 H         141.7523  138.2043  159.4677 H       1  UNL1        0.1566
     11 N         142.3674  135.3779  156.0608 N.ar    1  UNL1       -0.2382
     12 C         141.1408  136.1160  155.6128 C.ar    1  UNL1        0.0987
     13 C         140.9521  137.2953  156.5205 C.ar    1  UNL1        0.0565
     14 C         142.0620  137.2859  157.5294 C.ar    1  UNL1        0.1557
     15 N         142.9367  136.1009  157.2454 N.ar    1  UNL1       -0.1535
     16 C         142.9265  134.1351  155.4343 C.3     1  UNL1        0.2135
     17 P         143.0165  132.8681  156.2322 P.3     1  UNL1        0.2472
     18 C         143.1066  131.6011  157.0301 C.3     1  UNL1        0.0992
     19 O         144.4793  133.1133  156.4565 O.2     1  UNL1       -0.2875
     20 O         141.5538  132.6229  156.0080 O.3     1  UNL1       -0.3120
     21 C         140.2275  130.9231  154.5584 C.3     1  UNL1        0.0351
     22 C         141.0679  132.1608  154.6662 C.3     1  UNL1        0.1494
     23 O         145.0375  140.6010  163.1795 O.3     1  UNL1       -0.4534
     24 C         144.2573  140.4427  164.4508 C.ar    1  UNL1        0.1454
     25 C         143.9738  139.0723  164.9910 C.ar    1  UNL1        0.0388
     26 C         143.1936  138.9140  166.2623 C.ar    1  UNL1        0.0215
     27 C         142.6968  140.1260  166.9933 C.ar    1  UNL1        0.1059
     28 C         142.9802  141.4962  166.4530 C.ar    1  UNL1        0.0215
     29 C         143.7605  141.6546  165.1817 C.ar    1  UNL1        0.0388
     30 S         141.9165  139.9676  168.2646 S.O2    1  UNL1        0.0105
     31 C         141.1363  139.8092  169.5359 C.3     1  UNL1        0.1816
     32 O         140.8718  140.9077  167.7405 O.2     1  UNL1       -0.1686
     33 O         142.9613  139.0275  168.7887 O.2     1  UNL1       -0.1686
     34 O         142.6399  144.2205  160.3244 O.3     1  UNL1       -0.4765
     35 C         141.1660  144.4985  160.3343 C.3     1  UNL1        0.1954
     36 C         140.5582  145.3603  159.2676 C.3     1  UNL1        0.0500
     37 C         140.2998  143.9147  161.4108 C.3     1  UNL1        0.1855
     38 O         138.9066  144.4315  161.6151 O.3     1  UNL1       -0.3473
     39 C         138.1093  143.9884  162.8060 C.3     1  UNL1        0.1743
@<TRIPOS>BOND
     1    21    22    1
     2    22    20    1
     3    20    17    1
     4    17    18    1
     5    17    19    2
     6    17    16    1
     7    16    11    1
     8    11    12   ar
     9    12    13   ar
    10    13    14   ar
    11    14     7    1
    12     7     8   am
    13     8     9    2
    14     8     1    1
    15     1     2   ar
    16     2     3   ar
    17     3    23    1
    18    23    24    1
    19    24    25   ar
    20    25    26   ar
    21    26    27   ar
    22    27    30    1
    23    30    31    1
    24    30    32    2
    25    30    33    2
    26    27    28   ar
    27    28    29   ar
    28     3     4   ar
    29     4     5   ar
    30     5    34    1
    31    34    35    1
    32    35    36    1
    33    35    37    1
    34    37    38    1
    35    38    39    1
    36     5     6   ar
    37    14    15   ar
    38    15    11   ar
    39     6     1   ar
    40    29    24   ar
    41     7    10    1
@<TRIPOS>MOLECULE
*****
 39 41 0 0 0
SMALL
GASTEIGER

@<TRIPOS>ATOM
      1 C         140.1839  139.8643  160.5928 C.ar    1  UNL1        0.0597
      2 C         139.9134  139.0321  161.8111 C.ar    1  UNL1        0.0422
      3 C         139.3682  139.6743  163.0521 C.ar    1  UNL1        0.1485
      4 C         139.0936  141.1488  163.0749 C.ar    1  UNL1        0.0743
      5 C         139.3641  141.9810  161.8567 C.ar    1  UNL1        0.1417
      6 C         139.9092  141.3388  160.6156 C.ar    1  UNL1        0.0416
      7 N         142.2119  139.1206  159.1491 N.am    1  UNL1       -0.2644
      8 C         140.7291  139.2221  159.3517 C.2     1  UNL1        0.2508
      9 O         139.7915  138.6814  158.3132 O.2     1  UNL1       -0.2698
     10 H         142.8272  139.4755  159.8307 H       1  UNL1        0.1566
     11 N         143.5121  136.8139  156.3111 N.ar    1  UNL1       -0.2382
     12 C         143.6800  138.1666  155.6849 C.ar    1  UNL1        0.0987
     13 C         143.2133  139.1954  156.6719 C.ar    1  UNL1        0.0565
     14 C         142.7571  138.4784  157.9079 C.ar    1  UNL1        0.1557
     15 N         142.9417  137.0066  157.6850 N.ar    1  UNL1       -0.1535
     16 C         143.8544  135.4993  155.6751 C.3     1  UNL1        0.2135
     17 P         142.8369  134.3979  155.6349 P.3     1  UNL1        0.2472
     18 C         141.8194  133.2965  155.5947 C.3     1  UNL1        0.0992
     19 O         141.8009  135.3725  155.1586 O.2     1  UNL1       -0.2875
     20 O         143.8729  133.4233  156.1112 O.3     1  UNL1       -0.3120
     21 C         145.2258  132.3521  158.0534 C.3     1  UNL1        0.0351
     22 C         144.2577  133.3864  157.5606 C.3     1  UNL1        0.1494
     23 O         139.0977  138.8421  164.2705 O.3     1  UNL1       -0.4534
     24 C         139.7226  139.2096  165.5836 C.ar    1  UNL1        0.1454
     25 C         138.8541  139.5372  166.7620 C.ar    1  UNL1        0.0388
     26 C         139.4790  139.9047  168.0752 C.ar    1  UNL1        0.0215
     27 C         140.9725  139.9446  168.2100 C.ar    1  UNL1        0.1059
     28 C         141.8409  139.6170  167.0317 C.ar    1  UNL1        0.0215
     29 C         141.2160  139.2495  165.7185 C.ar    1  UNL1        0.0388
     30 S         141.5974  140.3121  169.5232 S.O2    1  UNL1        0.0105
     31 C         142.2223  140.6795  170.8364 C.3     1  UNL1        0.1816
     32 O         140.5307  139.5439  170.2458 O.2     1  UNL1       -0.1686
     33 O         142.6640  141.0802  168.8006 O.2     1  UNL1       -0.1686
     34 O         139.0894  143.4555  161.8795 O.3     1  UNL1       -0.4765
     35 C         140.2261  144.4286  161.9837 C.3     1  UNL1        0.1954
     36 C         139.9746  145.8971  161.8095 C.3     1  UNL1        0.0500
     37 C         141.6144  143.9333  162.2621 C.3     1  UNL1        0.1855
     38 O         142.7237  144.2286  161.2966 O.3     1  UNL1       -0.3473
     39 C         143.2202  143.1555  160.3735 C.3     1  UNL1        0.1743
@<TRIPOS>BOND
     1    21    22    1
     2    22    20    1
     3    20    17    1
     4    17    18    1
     5    17    19    2
     6    17    16    1
     7    16    11    1
     8    11    12   ar
     9    12    13   ar
    10    13    14   ar
    11    14     7    1
    12     7     8   am
    13     8     9    2
    14     8     1    1
    15     1     2   ar
    16     2     3   ar
    17     3    23    1
    18    23    24    1
    19    24    25   ar
    20    25    26   ar
    21    26    27   ar
    22    27    30    1
    23    30    31    1
    24    30    32    2
    25    30    33    2
    26    27    28   ar
    27    28    29   ar
    28     3     4   ar
    29     4     5   ar
    30     5    34    1
    31    34    35    1
    32    35    36    1
    33    35    37    1
    34    37    38    1
    35    38    39    1
    36     5     6   ar
    37    14    15   ar
    38    15    11   ar
    39     6     1   ar
    40    29    24   ar
    41     7    10    1
@<TRIPOS>MOLECULE
*****
 39 41 0 0 0
SMALL
GASTEIGER

@<TRIPOS>ATOM
      1 C         139.4511  142.9424  160.3849 C.ar    1  UNL1        0.0597
      2 C         138.7211  142.6982  161.6723 C.ar    1  UNL1        0.0422
      3 C         139.3704  143.0435  162.9797 C.ar    1  UNL1        0.1485
      4 C         140.7496  143.6328  162.9997 C.ar    1  UNL1        0.0743
      5 C         141.4796  143.8769  161.7122 C.ar    1  UNL1        0.1417
      6 C         140.8303  143.5317  160.4049 C.ar    1  UNL1        0.0416
      7 N         138.2927  141.2069  158.8369 N.am    1  UNL1       -0.2644
      8 C         138.8018  142.5972  159.0775 C.2     1  UNL1        0.2508
      9 O         138.6618  143.6423  158.0106 O.2     1  UNL1       -0.2698
     10 H         138.3846  140.5210  159.5371 H       1  UNL1        0.1566
     11 N         135.9901  140.2278  155.8695 N.ar    1  UNL1       -0.2382
     12 C         137.2987  140.4332  155.1655 C.ar    1  UNL1        0.0987
     13 C         138.3205  140.8250  156.1915 C.ar    1  UNL1        0.0565
     14 C         137.6434  140.8617  157.5294 C.ar    1  UNL1        0.1557
     15 N         136.2032  140.4926  157.3305 N.ar    1  UNL1       -0.1535
     16 C         134.6959  139.8278  155.2256 C.3     1  UNL1        0.2135
     17 P         133.4930  140.7161  155.3444 P.3     1  UNL1        0.2472
     18 C         132.2902  141.6044  155.4630 C.3     1  UNL1        0.0992
     19 O         133.8511  141.3746  154.0450 O.2     1  UNL1       -0.2875
     20 O         133.1349  140.0576  156.6436 O.3     1  UNL1       -0.3120
     21 C         131.2416  138.2795  156.7022 C.3     1  UNL1        0.0351
     22 C         132.7014  138.6217  156.6623 C.3     1  UNL1        0.1494
     23 O         138.6404  142.7993  164.2672 O.3     1  UNL1       -0.4534
     24 C         139.3320  142.1018  165.4008 C.ar    1  UNL1        0.1454
     25 C         140.1891  142.8839  166.3516 C.ar    1  UNL1        0.0388
     26 C         140.8807  142.1863  167.4852 C.ar    1  UNL1        0.0215
     27 C         140.7152  140.7067  167.6681 C.ar    1  UNL1        0.1059
     28 C         139.8581  139.9247  166.7174 C.ar    1  UNL1        0.0215
     29 C         139.1665  140.6222  165.5838 C.ar    1  UNL1        0.0388
     30 S         141.4068  140.0092  168.8017 S.O2    1  UNL1        0.0105
     31 C         142.0984  139.3116  169.9354 C.3     1  UNL1        0.1816
     32 O         142.6458  139.8796  167.9662 O.2     1  UNL1       -0.1686
     33 O         140.1679  140.1387  169.6373 O.2     1  UNL1       -0.1686
     34 O         142.8588  144.4663  161.7322 O.3     1  UNL1       -0.4765
     35 C         143.9768  143.7357  162.4150 C.3     1  UNL1        0.1954
     36 C         144.2886  144.0184  163.8547 C.3     1  UNL1        0.0500
     37 C         144.7831  142.7222  161.6580 C.3     1  UNL1        0.1855
     38 O         145.4806  141.6171  162.3943 O.3     1  UNL1       -0.3473
     39 C         144.7196  140.3906  162.8024 C.3     1  UNL1        0.1743
@<TRIPOS>BOND
     1    21    22    1
     2    22    20    1
     3    20    17    1
     4    17    18    1
     5    17    19    2
     6    17    16    1
     7    16    11    1
     8    11    12   ar
     9    12    13   ar
    10    13    14   ar
    11    14     7    1
    12     7     8   am
    13     8     9    2
    14     8     1    1
    15     1     2   ar
    16     2     3   ar
    17     3    23    1
    18    23    24    1
    19    24    25   ar
    20    25    26   ar
    21    26    27   ar
    22    27    30    1
    23    30    31    1
    24    30    32    2
    25    30    33    2
    26    27    28   ar
    27    28    29   ar
    28     3     4   ar
    29     4     5   ar
    30     5    34    1
    31    34    35    1
    32    35    36    1
    33    35    37    1
    34    37    38    1
    35    38    39    1
    36     5     6   ar
    37    14    15   ar
    38    15    11   ar
    39     6     1   ar
    40    29    24   ar
    41     7    10    1
@<TRIPOS>MOLECULE
*****
 39 41 0 0 0
SMALL
GASTEIGER

@<TRIPOS>ATOM
      1 C         141.1477  140.5309  160.0670 C.ar    1  UNL1        0.0597
      2 C         142.2782  140.8078  161.0131 C.ar    1  UNL1        0.0422
      3 C         142.0194  141.5379  162.2976 C.ar    1  UNL1        0.1485
      4 C         140.6301  141.9911  162.6359 C.ar    1  UNL1        0.0743
      5 C         139.4996  141.7142  161.6897 C.ar    1  UNL1        0.1417
      6 C         139.7584  140.9841  160.4052 C.ar    1  UNL1        0.0416
      7 N         142.7177  139.1052  158.5661 N.am    1  UNL1       -0.2644
      8 C         141.4065  139.8007  158.7824 C.2     1  UNL1        0.2508
      9 O         140.3540  139.7662  157.7142 O.2     1  UNL1       -0.2698
     10 H         143.4085  139.1279  159.2672 H       1  UNL1        0.1566
     11 N         143.4134  136.6037  155.6809 N.ar    1  UNL1       -0.2382
     12 C         143.3361  137.8994  154.9289 C.ar    1  UNL1        0.0987
     13 C         143.0661  138.9942  155.9182 C.ar    1  UNL1        0.0565
     14 C         142.9765  138.3750  157.2816 C.ar    1  UNL1        0.1557
     15 N         143.1912  136.8978  157.1349 N.ar    1  UNL1       -0.1535
     16 C         143.6682  135.2516  155.0837 C.3     1  UNL1        0.2135
     17 P         142.8279  134.0793  155.4955 P.3     1  UNL1        0.2472
     18 C         141.9875  132.9071  155.9073 C.3     1  UNL1        0.0992
     19 O         141.5992  134.7893  155.0091 O.2     1  UNL1       -0.2875
     20 O         144.0564  133.3694  155.9819 O.3     1  UNL1       -0.3120
     21 C         145.2859  132.2681  157.9882 C.3     1  UNL1        0.0351
     22 C         144.3630  133.3206  157.4494 C.3     1  UNL1        0.1494
     23 O         143.1499  141.8148  163.2439 O.3     1  UNL1       -0.4534
     24 C         143.0201  141.4528  164.6938 C.ar    1  UNL1        0.1454
     25 C         142.8672  140.0162  165.0973 C.ar    1  UNL1        0.0388
     26 C         142.7374  139.6542  166.5472 C.ar    1  UNL1        0.0215
     27 C         142.7605  140.7288  167.5935 C.ar    1  UNL1        0.1059
     28 C         142.9134  142.1654  167.1899 C.ar    1  UNL1        0.0215
     29 C         143.0432  142.5274  165.7400 C.ar    1  UNL1        0.0388
     30 S         142.6307  140.3669  169.0434 S.O2    1  UNL1        0.0105
     31 C         142.5009  140.0049  170.4932 C.3     1  UNL1        0.1816
     32 O         142.1854  141.7654  169.3527 O.2     1  UNL1       -0.1686
     33 O         143.0761  138.9683  168.7340 O.2     1  UNL1       -0.1686
     34 O         138.1103  142.1674  162.0280 O.3     1  UNL1       -0.4765
     35 C         137.8825  143.0780  163.1979 C.3     1  UNL1        0.1954
     36 C         137.7014  142.5033  164.5716 C.3     1  UNL1        0.0500
     37 C         137.8357  144.5635  162.9942 C.3     1  UNL1        0.1855
     38 O         138.7490  145.2129  161.9972 O.3     1  UNL1       -0.3473
     39 C         140.1445  145.5931  162.3949 C.3     1  UNL1        0.1743
@<TRIPOS>BOND
     1    21    22    1
     2    22    20    1
     3    20    17    1
     4    17    18    1
     5    17    19    2
     6    17    16    1
     7    16    11    1
     8    11    12   ar
     9    12    13   ar
    10    13    14   ar
    11    14     7    1
    12     7     8   am
    13     8     9    2
    14     8     1    1
    15     1     2   ar
    16     2     3   ar
    17     3    23    1
    18    23    24    1
    19    24    25   ar
    20    25    26   ar
    21    26    27   ar
    22    27    30    1
    23    30    31    1
    24    30    32    2
    25    30    33    2
    26    27    28   ar
    27    28    29   ar
    28     3     4   ar
    29     4     5   ar
    30     5    34    1
    31    34    35    1
    32    35    36    1
    33    35    37    1
    34    37    38    1
    35    38    39    1
    36     5     6   ar
    37    14    15   ar
    38    15    11   ar
    39     6     1   ar
    40    29    24   ar
    41     7    10    1
@<TRIPOS>MOLECULE
*****
 39 41 0 0 0
SMALL
GASTEIGER

@<TRIPOS>ATOM
      1 C         143.4707  139.3323  160.9181 C.ar    1  UNL1        0.0597
      2 C         142.9417  138.5048  162.0518 C.ar    1  UNL1        0.0422
      3 C         143.1610  138.9461  163.4685 C.ar    1  UNL1        0.1485
      4 C         143.9092  140.2149  163.7515 C.ar    1  UNL1        0.0743
      5 C         144.4382  141.0425  162.6179 C.ar    1  UNL1        0.1417
      6 C         144.2190  140.6012  161.2012 C.ar    1  UNL1        0.0416
      7 N         142.1690  137.9029  159.1825 N.am    1  UNL1       -0.2644
      8 C         143.2515  138.8910  159.5013 C.2     1  UNL1        0.2508
      9 O         144.1148  139.4380  158.4033 O.2     1  UNL1       -0.2698
     10 H         141.6024  137.5439  159.9032 H       1  UNL1        0.1566
     11 N         142.2150  136.3385  155.6306 N.ar    1  UNL1       -0.2382
     12 C         141.0096  137.2267  155.5405 C.ar    1  UNL1        0.0987
     13 C         140.8456  137.9209  156.8601 C.ar    1  UNL1        0.0565
     14 C         141.9497  137.4616  157.7657 C.ar    1  UNL1        0.1557
     15 N         142.7960  136.4837  157.0058 N.ar    1  UNL1       -0.1535
     16 C         142.7461  135.4595  154.5374 C.3     1  UNL1        0.2135
     17 P         141.9737  134.2477  154.1073 P.3     1  UNL1        0.2472
     18 C         141.2012  133.0359  153.6774 C.3     1  UNL1        0.0992
     19 O         141.8134  133.8407  155.5422 O.2     1  UNL1       -0.2875
     20 O         142.1340  134.6546  152.6725 O.3     1  UNL1       -0.3120
     21 C         139.9705  135.9914  152.1411 C.3     1  UNL1        0.0351
     22 C         141.4675  135.8998  152.1672 C.3     1  UNL1        0.1494
     23 O         142.6320  138.1185  164.6023 O.3     1  UNL1       -0.4534
     24 C         142.0810  138.7881  165.8262 C.ar    1  UNL1        0.1454
     25 C         142.9505  138.9758  167.0341 C.ar    1  UNL1        0.0388
     26 C         142.3995  139.6454  168.2580 C.ar    1  UNL1        0.0215
     27 C         140.9790  140.1273  168.2741 C.ar    1  UNL1        0.1059
     28 C         140.1096  139.9395  167.0663 C.ar    1  UNL1        0.0215
     29 C         140.6606  139.2699  165.8423 C.ar    1  UNL1        0.0388
     30 S         140.4280  140.7969  169.4981 S.O2    1  UNL1        0.0105
     31 C         139.8770  141.4665  170.7220 C.3     1  UNL1        0.1816
     32 O         140.3371  142.0928  168.7482 O.2     1  UNL1       -0.1686
     33 O         140.5190  139.5010  170.2480 O.2     1  UNL1       -0.1686
     34 O         145.1865  142.3113  162.9009 O.3     1  UNL1       -0.4765
     35 C         144.5064  143.4387  163.6196 C.3     1  UNL1        0.1954
     36 C         143.7115  144.4494  162.8472 C.3     1  UNL1        0.0500
     37 C         144.6212  143.5553  165.1107 C.3     1  UNL1        0.1855
     38 O         143.6713  142.8056  165.9970 O.3     1  UNL1       -0.3473
     39 C         142.2205  142.7077  165.6286 C.3     1  UNL1        0.1743
@<TRIPOS>BOND
     1    21    22    1
     2    22    20    1
     3    20    17    1
     4    17    18    1
     5    17    19    2
     6    17    16    1
     7    16    11    1
     8    11    12   ar
     9    12    13   ar
    10    13    14   ar
    11    14     7    1
    12     7     8   am
    13     8     9    2
    14     8     1    1
    15     1     2   ar
    16     2     3   ar
    17     3    23    1
    18    23    24    1
    19    24    25   ar
    20    25    26   ar
    21    26    27   ar
    22    27    30    1
    23    30    31    1
    24    30    32    2
    25    30    33    2
    26    27    28   ar
    27    28    29   ar
    28     3     4   ar
    29     4     5   ar
    30     5    34    1
    31    34    35    1
    32    35    36    1
    33    35    37    1
    34    37    38    1
    35    38    39    1
    36     5     6   ar
    37    14    15   ar
    38    15    11   ar
    39     6     1   ar
    40    29    24   ar
    41     7    10    1
