@<TRIPOS>MOLECULE
*****
 35 37 0 0 0
SMALL
GASTEIGER

@<TRIPOS>ATOM
      1 C         141.6595  139.6009  167.0710 C.ar    1  UNL1        0.2445
      2 N         142.7197  139.3761  168.1082 N.ar    1  UNL1       -0.2078
      3 C         142.4269  139.6547  169.5526 C.ar    1  UNL1        0.1135
      4 C         141.0738  140.1579  169.9601 C.ar    1  UNL1        0.0783
      5 CL        140.7810  140.4365  171.4046 Cl      1  UNL1       -0.0806
      6 C         140.0137  140.3827  168.9231 C.ar    1  UNL1        0.0336
      7 C         140.3065  140.1042  167.4785 C.ar    1  UNL1        0.1190
      8 N         139.2463  140.3289  166.4414 N.pl3   1  UNL1       -0.2104
      9 H         138.5008  139.6920  166.3536 H       1  UNL1        0.1739
     10 S         139.3220  141.5242  165.5383 S.O2    1  UNL1        0.0737
     11 O         139.9989  142.3036  166.6265 O.2     1  UNL1       -0.1499
     12 O         138.6452  140.7447  164.4500 O.2     1  UNL1       -0.1499
     13 C         139.3977  142.7194  164.6351 C.ar    1  UNL1        0.1261
     14 C         138.2064  143.1161  163.8146 C.ar    1  UNL1        0.0211
     15 C         138.2821  144.3113  162.9114 C.ar    1  UNL1        0.0136
     16 C         139.5491  145.1099  162.8288 C.ar    1  UNL1        0.0683
     17 CL        139.6248  146.3051  161.9257 Cl      1  UNL1       -0.0814
     18 C         140.7405  144.7132  163.6494 C.ar    1  UNL1        0.0695
     19 CL        142.0076  145.5118  163.5668 Cl      1  UNL1       -0.0813
     20 C         140.6648  143.5180  164.5526 C.ar    1  UNL1        0.0324
     21 O         141.9524  139.3224  165.6265 O.3     1  UNL1       -0.4349
     22 C         142.6209  140.2712  163.3021 C.ar    1  UNL1        0.0879
     23 C         143.3496  141.2884  162.4750 C.ar    1  UNL1        0.0076
     24 C         144.1386  142.3740  163.1450 C.ar    1  UNL1        0.0003
     25 C         144.1989  142.4424  164.6422 C.ar    1  UNL1        0.0031
     26 C         143.4702  141.4252  165.4693 C.ar    1  UNL1        0.0377
     27 C         142.6811  140.3396  164.7993 C.ar    1  UNL1        0.1515
     28 O         142.5226  138.1993  161.7377 O.2     1  UNL1       -0.2700
     29 C         141.8318  139.1856  162.6321 C.2     1  UNL1        0.2489
     30 N         140.3521  139.0863  162.8564 N.am    1  UNL1       -0.2984
     31 H         139.8987  139.7337  163.4434 H       1  UNL1        0.1498
     32 C         139.5631  138.0008  162.1864 C.3     1  UNL1        0.1215
     33 C         138.0898  138.1730  161.9631 C.3     1  UNL1        0.1583
     34 O         137.4678  139.5331  162.0784 O.3     1  UNL1       -0.3802
     35 H         137.5299  139.8404  162.9963 H       1  UNL1        0.2105
@<TRIPOS>BOND
     1    28    29    2
     2    29    30   am
     3    30    32    1
     4    32    33    1
     5    33    34    1
     6    29    22    1
     7    22    23   ar
     8    23    24   ar
     9    24    25   ar
    10    25    26   ar
    11    26    27   ar
    12    27    21    1
    13    21     1    1
    14     1     2   ar
    15     2     3   ar
    16     3     4   ar
    17     4     5    1
    18     4     6   ar
    19     6     7   ar
    20     7     8    1
    21     8    10    1
    22    10    11    2
    23    10    12    2
    24    10    13    1
    25    13    14   ar
    26    14    15   ar
    27    15    16   ar
    28    16    17    1
    29    16    18   ar
    30    18    19    1
    31    18    20   ar
    32    27    22   ar
    33     7     1   ar
    34    20    13   ar
    35    30    31    1
    36    34    35    1
    37     8     9    1
@<TRIPOS>MOLECULE
*****
 35 37 0 0 0
SMALL
GASTEIGER

@<TRIPOS>ATOM
      1 C         140.2312  140.6598  167.4437 C.ar    1  UNL1        0.2445
      2 N         139.7715  139.9847  168.7020 N.ar    1  UNL1       -0.2078
      3 C         140.7374  139.7567  169.8267 C.ar    1  UNL1        0.1135
      4 C         142.1630  140.2036  169.6932 C.ar    1  UNL1        0.0783
      5 CL        143.1289  139.9755  170.8179 Cl      1  UNL1       -0.0806
      6 C         142.6227  140.8786  168.4351 C.ar    1  UNL1        0.0336
      7 C         141.6568  141.1067  167.3103 C.ar    1  UNL1        0.1190
      8 N         142.1166  141.7817  166.0522 N.pl3   1  UNL1       -0.2104
      9 H         142.3509  142.7378  166.0639 H       1  UNL1        0.1739
     10 S         142.2192  141.0000  164.7761 S.O2    1  UNL1        0.0737
     11 O         142.8640  139.8688  165.5209 O.2     1  UNL1       -0.1499
     12 O         141.5744  142.1311  164.0313 O.2     1  UNL1       -0.1499
     13 C         142.3219  140.2182  163.5000 C.ar    1  UNL1        0.1261
     14 C         142.9639  138.8626  163.5005 C.ar    1  UNL1        0.0211
     15 C         143.0666  138.0809  162.2244 C.ar    1  UNL1        0.0136
     16 C         142.5271  138.6548  160.9479 C.ar    1  UNL1        0.0683
     17 CL        142.6298  137.8730  159.6718 Cl      1  UNL1       -0.0814
     18 C         141.8850  140.0104  160.9473 C.ar    1  UNL1        0.0695
     19 CL        141.3456  140.5843  159.6708 Cl      1  UNL1       -0.0813
     20 C         141.7824  140.7922  162.2234 C.ar    1  UNL1        0.0324
     21 O         139.2653  140.8878  166.3191 O.3     1  UNL1       -0.4349
     22 C         138.5422  140.2534  163.9056 C.ar    1  UNL1        0.0879
     23 C         138.4017  139.2296  162.8184 C.ar    1  UNL1        0.0076
     24 C         138.8438  137.8163  163.0575 C.ar    1  UNL1        0.0003
     25 C         139.4263  137.4268  164.3837 C.ar    1  UNL1        0.0031
     26 C         139.5668  138.4506  165.4709 C.ar    1  UNL1        0.0377
     27 C         139.1248  139.8640  165.2318 C.ar    1  UNL1        0.1515
     28 O         136.9355  141.9457  162.7634 O.2     1  UNL1       -0.2700
     29 C         138.1002  141.6667  163.6665 C.2     1  UNL1        0.2489
     30 N         138.8229  142.8011  164.3305 N.am    1  UNL1       -0.2984
     31 H         139.5873  142.6180  164.9233 H       1  UNL1        0.1498
     32 C         138.3808  144.2144  164.0915 C.3     1  UNL1        0.1215
     33 C         138.7797  144.9218  162.8302 C.3     1  UNL1        0.1583
     34 O         138.6006  144.2465  161.5029 O.3     1  UNL1       -0.3802
     35 H         139.1882  143.4766  161.4499 H       1  UNL1        0.2105
@<TRIPOS>BOND
     1    28    29    2
     2    29    30   am
     3    30    32    1
     4    32    33    1
     5    33    34    1
     6    29    22    1
     7    22    23   ar
     8    23    24   ar
     9    24    25   ar
    10    25    26   ar
    11    26    27   ar
    12    27    21    1
    13    21     1    1
    14     1     2   ar
    15     2     3   ar
    16     3     4   ar
    17     4     5    1
    18     4     6   ar
    19     6     7   ar
    20     7     8    1
    21     8    10    1
    22    10    11    2
    23    10    12    2
    24    10    13    1
    25    13    14   ar
    26    14    15   ar
    27    15    16   ar
    28    16    17    1
    29    16    18   ar
    30    18    19    1
    31    18    20   ar
    32    27    22   ar
    33     7     1   ar
    34    20    13   ar
    35    30    31    1
    36    34    35    1
    37     8     9    1
@<TRIPOS>MOLECULE
*****
 35 37 0 0 0
SMALL
GASTEIGER

@<TRIPOS>ATOM
      1 C         141.3692  140.6209  167.4542 C.ar    1  UNL1        0.2445
      2 N         141.1096  139.9836  168.7871 N.ar    1  UNL1       -0.2078
      3 C         140.5258  140.7950  169.9054 C.ar    1  UNL1        0.1135
      4 C         140.2016  142.2438  169.6910 C.ar    1  UNL1        0.0783
      5 CL        139.6179  143.0552  170.8093 Cl      1  UNL1       -0.0806
      6 C         140.4612  142.8811  168.3582 C.ar    1  UNL1        0.0336
      7 C         141.0451  142.0697  167.2398 C.ar    1  UNL1        0.1190
      8 N         141.3047  142.7070  165.9070 N.pl3   1  UNL1       -0.2104
      9 H         141.9502  143.4465  165.8324 H       1  UNL1        0.1739
     10 S         140.5807  142.2176  164.6878 S.O2    1  UNL1        0.0737
     11 O         141.8801  142.1561  163.9409 O.2     1  UNL1       -0.1499
     12 O         139.2814  142.2790  165.4348 O.2     1  UNL1       -0.1499
     13 C         139.8568  141.7282  163.4687 C.ar    1  UNL1        0.1261
     14 C         138.3863  141.4396  163.5349 C.ar    1  UNL1        0.0211
     15 C         137.6623  140.9502  162.3158 C.ar    1  UNL1        0.0136
     16 C         138.4088  140.7493  161.0304 C.ar    1  UNL1        0.0683
     17 CL        137.6849  140.2599  159.8112 Cl      1  UNL1       -0.0814
     18 C         139.8794  141.0379  160.9641 C.ar    1  UNL1        0.0695
     19 CL        140.6259  140.8370  159.6787 Cl      1  UNL1       -0.0813
     20 C         140.6034  141.5273  162.1832 C.ar    1  UNL1        0.0324
     21 O         141.9530  139.8095  166.3359 O.3     1  UNL1       -0.4349
     22 C         141.5624  138.5716  164.0853 C.ar    1  UNL1        0.0879
     23 C         140.6597  137.8073  163.1627 C.ar    1  UNL1        0.0076
     24 C         139.2451  137.5167  163.5681 C.ar    1  UNL1        0.0003
     25 C         138.7331  137.9904  164.8961 C.ar    1  UNL1        0.0031
     26 C         139.6357  138.7546  165.8186 C.ar    1  UNL1        0.0377
     27 C         141.0504  139.0452  165.4132 C.ar    1  UNL1        0.1515
     28 O         143.5901  138.1330  162.5213 O.2     1  UNL1       -0.2700
     29 C         142.9770  138.8622  163.6799 C.2     1  UNL1        0.2489
     30 N         143.7786  139.8820  164.4331 N.am    1  UNL1       -0.2984
     31 H         143.3763  140.3606  165.1936 H       1  UNL1        0.1498
     32 C         145.1933  140.1726  164.0277 C.3     1  UNL1        0.1215
     33 C         145.6350  141.5894  163.8097 C.3     1  UNL1        0.1583
     34 O         145.9852  142.0619  162.4298 O.3     1  UNL1       -0.3802
     35 H         146.7771  141.5954  162.1196 H       1  UNL1        0.2105
@<TRIPOS>BOND
     1    28    29    2
     2    29    30   am
     3    30    32    1
     4    32    33    1
     5    33    34    1
     6    29    22    1
     7    22    23   ar
     8    23    24   ar
     9    24    25   ar
    10    25    26   ar
    11    26    27   ar
    12    27    21    1
    13    21     1    1
    14     1     2   ar
    15     2     3   ar
    16     3     4   ar
    17     4     5    1
    18     4     6   ar
    19     6     7   ar
    20     7     8    1
    21     8    10    1
    22    10    11    2
    23    10    12    2
    24    10    13    1
    25    13    14   ar
    26    14    15   ar
    27    15    16   ar
    28    16    17    1
    29    16    18   ar
    30    18    19    1
    31    18    20   ar
    32    27    22   ar
    33     7     1   ar
    34    20    13   ar
    35    30    31    1
    36    34    35    1
    37     8     9    1
@<TRIPOS>MOLECULE
*****
 35 37 0 0 0
SMALL
GASTEIGER

@<TRIPOS>ATOM
      1 C         140.3308  142.3205  162.6106 C.ar    1  UNL1        0.2445
      2 N         140.9316  142.8989  161.3638 N.ar    1  UNL1       -0.2078
      3 C         140.6532  144.3242  160.9885 C.ar    1  UNL1        0.1135
      4 C         139.7739  145.1712  161.8600 C.ar    1  UNL1        0.0783
      5 CL        139.4954  146.5965  161.4847 Cl      1  UNL1       -0.0806
      6 C         139.1730  144.5929  163.1068 C.ar    1  UNL1        0.0336
      7 C         139.4515  143.1675  163.4821 C.ar    1  UNL1        0.1190
      8 N         138.8507  142.5891  164.7289 N.pl3   1  UNL1       -0.2104
      9 H         137.8743  142.4874  164.8034 H       1  UNL1        0.1739
     10 S         139.7374  142.1657  165.8621 S.O2    1  UNL1        0.0737
     11 O         138.9899  140.8691  165.9626 O.2     1  UNL1       -0.1499
     12 O         140.4850  143.4623  165.7617 O.2     1  UNL1       -0.1499
     13 C         140.6242  141.7422  166.9954 C.ar    1  UNL1        0.1261
     14 C         142.0871  142.0727  166.9669 C.ar    1  UNL1        0.0211
     15 C         142.9739  141.6492  168.1002 C.ar    1  UNL1        0.0136
     16 C         142.3978  140.8953  169.2620 C.ar    1  UNL1        0.0683
     17 CL        143.2846  140.4719  170.3952 Cl      1  UNL1       -0.0814
     18 C         140.9349  140.5648  169.2905 C.ar    1  UNL1        0.0695
     19 CL        140.3589  139.8109  170.4523 Cl      1  UNL1       -0.0813
     20 C         140.0481  140.9883  168.1572 C.ar    1  UNL1        0.0324
     21 O         140.6093  140.8952  162.9859 O.3     1  UNL1       -0.4349
     22 C         142.1773  139.1399  164.0860 C.ar    1  UNL1        0.0879
     23 C         143.5282  138.7527  164.6105 C.ar    1  UNL1        0.0076
     24 C         144.6620  139.7335  164.5595 C.ar    1  UNL1        0.0003
     25 C         144.4448  141.1015  163.9839 C.ar    1  UNL1        0.0031
     26 C         143.0940  141.4887  163.4594 C.ar    1  UNL1        0.0377
     27 C         141.9602  140.5079  163.5105 C.ar    1  UNL1        0.1515
     28 O         141.0360  136.9730  163.2189 O.2     1  UNL1       -0.2700
     29 C         141.0436  138.1591  164.1371 C.2     1  UNL1        0.2489
     30 N         139.9174  138.3644  165.1064 N.am    1  UNL1       -0.2984
     31 H         139.9223  139.1428  165.7090 H       1  UNL1        0.1498
     32 C         138.7836  137.3836  165.1575 C.3     1  UNL1        0.1215
     33 C         137.8867  137.3359  166.3589 C.3     1  UNL1        0.1583
     34 O         137.3552  138.6084  166.9490 O.3     1  UNL1       -0.3802
     35 H         138.0891  139.1265  167.3148 H       1  UNL1        0.2105
@<TRIPOS>BOND
     1    28    29    2
     2    29    30   am
     3    30    32    1
     4    32    33    1
     5    33    34    1
     6    29    22    1
     7    22    23   ar
     8    23    24   ar
     9    24    25   ar
    10    25    26   ar
    11    26    27   ar
    12    27    21    1
    13    21     1    1
    14     1     2   ar
    15     2     3   ar
    16     3     4   ar
    17     4     5    1
    18     4     6   ar
    19     6     7   ar
    20     7     8    1
    21     8    10    1
    22    10    11    2
    23    10    12    2
    24    10    13    1
    25    13    14   ar
    26    14    15   ar
    27    15    16   ar
    28    16    17    1
    29    16    18   ar
    30    18    19    1
    31    18    20   ar
    32    27    22   ar
    33     7     1   ar
    34    20    13   ar
    35    30    31    1
    36    34    35    1
    37     8     9    1
@<TRIPOS>MOLECULE
*****
 35 37 0 0 0
SMALL
GASTEIGER

@<TRIPOS>ATOM
      1 C         142.3732  140.2755  167.3107 C.ar    1  UNL1        0.2445
      2 N         142.7922  139.2877  168.3590 N.ar    1  UNL1       -0.2078
      3 C         142.0585  139.2244  169.6658 C.ar    1  UNL1        0.1135
      4 C         140.9059  140.1489  169.9244 C.ar    1  UNL1        0.0783
      5 CL        140.1723  140.0856  171.2311 Cl      1  UNL1       -0.0806
      6 C         140.4870  141.1367  168.8762 C.ar    1  UNL1        0.0336
      7 C         141.2206  141.2000  167.5693 C.ar    1  UNL1        0.1190
      8 N         140.8016  142.1877  166.5211 N.pl3   1  UNL1       -0.2104
      9 H         141.0071  143.1437  166.6355 H       1  UNL1        0.1739
     10 S         140.0697  141.7189  165.2986 S.O2    1  UNL1        0.0737
     11 O         140.9126  142.6219  164.4477 O.2     1  UNL1       -0.1499
     12 O         139.2267  140.8160  166.1496 O.2     1  UNL1       -0.1499
     13 C         139.3377  141.2502  164.0762 C.ar    1  UNL1        0.1261
     14 C         138.8098  142.2486  163.0891 C.ar    1  UNL1        0.0211
     15 C         138.0778  141.7798  161.8666 C.ar    1  UNL1        0.0136
     16 C         137.8737  140.3126  161.6312 C.ar    1  UNL1        0.0683
     17 CL        137.1417  139.8438  160.4087 Cl      1  UNL1       -0.0814
     18 C         138.4017  139.3140  162.6183 C.ar    1  UNL1        0.0695
     19 CL        138.1976  137.8468  162.3829 Cl      1  UNL1       -0.0813
     20 C         139.1336  139.7828  163.8408 C.ar    1  UNL1        0.0324
     21 O         143.1068  140.3388  166.0039 O.3     1  UNL1       -0.4349
     22 C         143.1501  139.7323  163.4780 C.ar    1  UNL1        0.0879
     23 C         142.7623  138.8165  162.3551 C.ar    1  UNL1        0.0076
     24 C         141.9436  137.5912  162.6353 C.ar    1  UNL1        0.0003
     25 C         141.5126  137.2819  164.0383 C.ar    1  UNL1        0.0031
     26 C         141.9003  138.1977  165.1611 C.ar    1  UNL1        0.0377
     27 C         142.7191  139.4229  164.8810 C.ar    1  UNL1        0.1515
     28 O         145.0735  140.9058  162.1844 O.2     1  UNL1       -0.2700
     29 C         143.9688  140.9575  163.1978 C.2     1  UNL1        0.2489
     30 N         143.6830  142.2344  163.9310 N.am    1  UNL1       -0.2984
     31 H         142.9579  142.2684  164.5962 H       1  UNL1        0.1498
     32 C         144.5017  143.4596  163.6509 C.3     1  UNL1        0.1215
     33 C         144.2016  144.3032  162.4473 C.3     1  UNL1        0.1583
     34 O         142.9404  145.1135  162.3950 O.3     1  UNL1       -0.3802
     35 H         142.1746  144.5186  162.3713 H       1  UNL1        0.2105
@<TRIPOS>BOND
     1    28    29    2
     2    29    30   am
     3    30    32    1
     4    32    33    1
     5    33    34    1
     6    29    22    1
     7    22    23   ar
     8    23    24   ar
     9    24    25   ar
    10    25    26   ar
    11    26    27   ar
    12    27    21    1
    13    21     1    1
    14     1     2   ar
    15     2     3   ar
    16     3     4   ar
    17     4     5    1
    18     4     6   ar
    19     6     7   ar
    20     7     8    1
    21     8    10    1
    22    10    11    2
    23    10    12    2
    24    10    13    1
    25    13    14   ar
    26    14    15   ar
    27    15    16   ar
    28    16    17    1
    29    16    18   ar
    30    18    19    1
    31    18    20   ar
    32    27    22   ar
    33     7     1   ar
    34    20    13   ar
    35    30    31    1
    36    34    35    1
    37     8     9    1
@<TRIPOS>MOLECULE
*****
 35 37 0 0 0
SMALL
GASTEIGER

@<TRIPOS>ATOM
      1 C         141.2187  142.1389  167.2162 C.ar    1  UNL1        0.2445
      2 N         140.7999  142.9089  168.4335 N.ar    1  UNL1       -0.2078
      3 C         140.2379  142.1860  169.6216 C.ar    1  UNL1        0.1135
      4 C         140.0948  140.6931  169.5924 C.ar    1  UNL1        0.0783
      5 CL        139.5328  139.9702  170.7805 Cl      1  UNL1       -0.0806
      6 C         140.5136  139.9232  168.3752 C.ar    1  UNL1        0.0336
      7 C         141.0756  140.6461  167.1870 C.ar    1  UNL1        0.1190
      8 N         141.4944  139.8761  165.9698 N.pl3   1  UNL1       -0.2104
      9 H         142.3353  139.3641  165.9764 H       1  UNL1        0.1739
     10 S         140.6321  139.8863  164.7425 S.O2    1  UNL1        0.0737
     11 O         141.8181  140.2790  163.9124 O.2     1  UNL1       -0.1499
     12 O         139.4460  139.4935  165.5725 O.2     1  UNL1       -0.1499
     13 C         139.7698  139.8964  163.5151 C.ar    1  UNL1        0.1261
     14 C         139.0254  138.6584  163.1113 C.ar    1  UNL1        0.0211
     15 C         138.1630  138.6685  161.8840 C.ar    1  UNL1        0.0136
     16 C         138.0451  139.9166  161.0605 C.ar    1  UNL1        0.0683
     17 CL        137.1828  139.9268  159.8332 Cl      1  UNL1       -0.0814
     18 C         138.7895  141.1548  161.4643 C.ar    1  UNL1        0.0695
     19 CL        138.6716  142.4029  160.6408 Cl      1  UNL1       -0.0813
     20 C         139.6519  141.1446  162.6916 C.ar    1  UNL1        0.0324
     21 O         141.7807  142.8619  166.0282 O.3     1  UNL1       -0.4349
     22 C         141.3870  144.1084  163.7828 C.ar    1  UNL1        0.0879
     23 C         140.4696  144.8318  162.8423 C.ar    1  UNL1        0.0076
     24 C         139.0283  145.0323  163.2063 C.ar    1  UNL1        0.0003
     25 C         138.5045  144.5094  164.5109 C.ar    1  UNL1        0.0031
     26 C         139.4219  143.7859  165.4515 C.ar    1  UNL1        0.0377
     27 C         140.8632  143.5854  165.0875 C.ar    1  UNL1        0.1515
     28 O         143.6096  145.0306  162.8032 O.2     1  UNL1       -0.2700
     29 C         142.8283  143.9078  163.4188 C.2     1  UNL1        0.2489
     30 N         143.4883  142.5846  163.6704 N.am    1  UNL1       -0.2984
     31 H         142.9756  141.8477  164.0745 H       1  UNL1        0.1498
     32 C         144.9296  142.3841  163.3064 C.3     1  UNL1        0.1215
     33 C         145.6230  141.1036  163.6665 C.3     1  UNL1        0.1583
     34 O         144.9793  139.7868  163.3476 O.3     1  UNL1       -0.3802
     35 H         144.1702  139.6867  163.8732 H       1  UNL1        0.2105
@<TRIPOS>BOND
     1    28    29    2
     2    29    30   am
     3    30    32    1
     4    32    33    1
     5    33    34    1
     6    29    22    1
     7    22    23   ar
     8    23    24   ar
     9    24    25   ar
    10    25    26   ar
    11    26    27   ar
    12    27    21    1
    13    21     1    1
    14     1     2   ar
    15     2     3   ar
    16     3     4   ar
    17     4     5    1
    18     4     6   ar
    19     6     7   ar
    20     7     8    1
    21     8    10    1
    22    10    11    2
    23    10    12    2
    24    10    13    1
    25    13    14   ar
    26    14    15   ar
    27    15    16   ar
    28    16    17    1
    29    16    18   ar
    30    18    19    1
    31    18    20   ar
    32    27    22   ar
    33     7     1   ar
    34    20    13   ar
    35    30    31    1
    36    34    35    1
    37     8     9    1
@<TRIPOS>MOLECULE
*****
 35 37 0 0 0
SMALL
GASTEIGER

@<TRIPOS>ATOM
      1 C         141.4178  141.2824  161.0963 C.ar    1  UNL1        0.2445
      2 N         142.2410  141.2098  159.8445 N.ar    1  UNL1       -0.2078
      3 C         142.3676  142.4141  158.9592 C.ar    1  UNL1        0.1135
      4 C         141.6710  143.6909  159.3257 C.ar    1  UNL1        0.0783
      5 CL        141.7975  144.8952  158.4404 Cl      1  UNL1       -0.0806
      6 C         140.8477  143.7636  160.5775 C.ar    1  UNL1        0.0336
      7 C         140.7211  142.5593  161.4628 C.ar    1  UNL1        0.1190
      8 N         139.8979  142.6319  162.7146 N.pl3   1  UNL1       -0.2104
      9 H         138.9202  142.7314  162.6557 H       1  UNL1        0.1739
     10 S         140.5643  142.5531  164.0561 S.O2    1  UNL1        0.0737
     11 O         141.6379  143.4850  163.5777 O.2     1  UNL1       -0.1499
     12 O         139.4907  141.6212  164.5346 O.2     1  UNL1       -0.1499
     13 C         141.2307  142.4742  165.3977 C.ar    1  UNL1        0.1261
     14 C         142.7271  142.5077  165.4949 C.ar    1  UNL1        0.0211
     15 C         143.3935  142.4288  166.8364 C.ar    1  UNL1        0.0136
     16 C         142.5634  142.3165  168.0807 C.ar    1  UNL1        0.0683
     17 CL        143.2298  142.2376  169.4223 Cl      1  UNL1       -0.0814
     18 C         141.0669  142.2830  167.9836 C.ar    1  UNL1        0.0695
     19 CL        140.2368  142.1707  169.2279 Cl      1  UNL1       -0.0813
     20 C         140.4005  142.3619  166.6420 C.ar    1  UNL1        0.0324
     21 O         141.2912  140.0782  161.9816 O.3     1  UNL1       -0.4349
     22 C         142.0659  138.8956  164.1613 C.ar    1  UNL1        0.0879
     23 C         143.1448  138.5775  165.1536 C.ar    1  UNL1        0.0076
     24 C         144.5281  139.1239  164.9585 C.ar    1  UNL1        0.0003
     25 C         144.8324  139.9884  163.7710 C.ar    1  UNL1        0.0031
     26 C         143.7534  140.3065  162.7788 C.ar    1  UNL1        0.0377
     27 C         142.3702  139.7601  162.9739 C.ar    1  UNL1        0.1515
     28 O         140.1382  137.3278  163.4024 O.2     1  UNL1       -0.2700
     29 C         140.6826  138.3491  164.3565 C.2     1  UNL1        0.2489
     30 N         139.8439  138.8240  165.5058 N.am    1  UNL1       -0.2984
     31 H         140.2012  139.4944  166.1321 H       1  UNL1        0.1498
     32 C         138.4606  138.2776  165.7009 C.3     1  UNL1        0.1215
     33 C         137.7178  138.5541  166.9745 C.3     1  UNL1        0.1583
     34 O         136.7597  137.5369  167.5198 O.3     1  UNL1       -0.3802
     35 H         136.0099  137.4405  166.9121 H       1  UNL1        0.2105
@<TRIPOS>BOND
     1    28    29    2
     2    29    30   am
     3    30    32    1
     4    32    33    1
     5    33    34    1
     6    29    22    1
     7    22    23   ar
     8    23    24   ar
     9    24    25   ar
    10    25    26   ar
    11    26    27   ar
    12    27    21    1
    13    21     1    1
    14     1     2   ar
    15     2     3   ar
    16     3     4   ar
    17     4     5    1
    18     4     6   ar
    19     6     7   ar
    20     7     8    1
    21     8    10    1
    22    10    11    2
    23    10    12    2
    24    10    13    1
    25    13    14   ar
    26    14    15   ar
    27    15    16   ar
    28    16    17    1
    29    16    18   ar
    30    18    19    1
    31    18    20   ar
    32    27    22   ar
    33     7     1   ar
    34    20    13   ar
    35    30    31    1
    36    34    35    1
    37     8     9    1
@<TRIPOS>MOLECULE
*****
 35 37 0 0 0
SMALL
GASTEIGER

@<TRIPOS>ATOM
      1 C         140.6222  140.5667  160.2585 C.ar    1  UNL1        0.2445
      2 N         140.5151  139.6152  159.1038 N.ar    1  UNL1       -0.2078
      3 C         139.3741  139.7341  158.1373 C.ar    1  UNL1        0.1135
      4 C         138.3402  140.8045  158.3256 C.ar    1  UNL1        0.0783
      5 CL        137.1993  140.9234  157.3591 Cl      1  UNL1       -0.0806
      6 C         138.4473  141.7559  159.4802 C.ar    1  UNL1        0.0336
      7 C         139.5883  141.6371  160.4467 C.ar    1  UNL1        0.1190
      8 N         139.6954  142.5885  161.6013 N.pl3   1  UNL1       -0.2104
      9 H         139.7783  143.5555  161.4362 H       1  UNL1        0.1739
     10 S         139.6761  142.0667  163.0075 S.O2    1  UNL1        0.0737
     11 O         140.8515  142.9350  163.3459 O.2     1  UNL1       -0.1499
     12 O         138.5007  141.1983  162.6691 O.2     1  UNL1       -0.1499
     13 C         139.6568  141.5448  164.4136 C.ar    1  UNL1        0.1261
     14 C         140.5269  142.1759  165.4599 C.ar    1  UNL1        0.0211
     15 C         140.5076  141.6540  166.8660 C.ar    1  UNL1        0.0136
     16 C         139.6181  140.5011  167.2260 C.ar    1  UNL1        0.0683
     17 CL        139.5988  139.9792  168.6321 Cl      1  UNL1       -0.0814
     18 C         138.7480  139.8699  166.1797 C.ar    1  UNL1        0.0695
     19 CL        137.8585  138.7170  166.5397 Cl      1  UNL1       -0.0813
     20 C         138.7673  140.3918  164.7736 C.ar    1  UNL1        0.0324
     21 O         141.7632  140.4478  161.2249 O.3     1  UNL1       -0.4349
     22 C         142.6935  139.5164  163.4648 C.ar    1  UNL1        0.0879
     23 C         142.6256  138.5231  164.5867 C.ar    1  UNL1        0.0076
     24 C         141.5596  137.4679  164.5907 C.ar    1  UNL1        0.0003
     25 C         140.5614  137.4060  163.4728 C.ar    1  UNL1        0.0031
     26 C         140.6292  138.3993  162.3509 C.ar    1  UNL1        0.0377
     27 C         141.6953  139.4545  162.3469 C.ar    1  UNL1        0.1515
     28 O         145.1405  140.2445  163.9466 O.2     1  UNL1       -0.2700
     29 C         143.7596  140.5716  163.4608 C.2     1  UNL1        0.2489
     30 N         143.4448  141.9539  162.9709 N.am    1  UNL1       -0.2984
     31 H         142.5385  142.1687  162.6520 H       1  UNL1        0.1498
     32 C         144.5109  143.0092  162.9668 C.3     1  UNL1        0.1215
     33 C         144.1356  144.4538  162.8174 C.3     1  UNL1        0.1583
     34 O         142.9174  144.8346  162.0295 O.3     1  UNL1       -0.3802
     35 H         143.0505  144.6041  161.0967 H       1  UNL1        0.2105
@<TRIPOS>BOND
     1    28    29    2
     2    29    30   am
     3    30    32    1
     4    32    33    1
     5    33    34    1
     6    29    22    1
     7    22    23   ar
     8    23    24   ar
     9    24    25   ar
    10    25    26   ar
    11    26    27   ar
    12    27    21    1
    13    21     1    1
    14     1     2   ar
    15     2     3   ar
    16     3     4   ar
    17     4     5    1
    18     4     6   ar
    19     6     7   ar
    20     7     8    1
    21     8    10    1
    22    10    11    2
    23    10    12    2
    24    10    13    1
    25    13    14   ar
    26    14    15   ar
    27    15    16   ar
    28    16    17    1
    29    16    18   ar
    30    18    19    1
    31    18    20   ar
    32    27    22   ar
    33     7     1   ar
    34    20    13   ar
    35    30    31    1
    36    34    35    1
    37     8     9    1
@<TRIPOS>MOLECULE
*****
 35 37 0 0 0
SMALL
GASTEIGER

@<TRIPOS>ATOM
      1 C         141.0014  141.5535  166.6990 C.ar    1  UNL1        0.2445
      2 N         140.3186  141.7888  168.0138 N.ar    1  UNL1       -0.2078
      3 C         141.1128  142.2524  169.1988 C.ar    1  UNL1        0.1135
      4 C         142.5896  142.4806  169.0692 C.ar    1  UNL1        0.0783
      5 CL        143.3838  142.9442  170.2543 Cl      1  UNL1       -0.0806
      6 C         143.2724  142.2453  167.7545 C.ar    1  UNL1        0.0336
      7 C         142.4782  141.7817  166.5694 C.ar    1  UNL1        0.1190
      8 N         143.1610  141.5463  165.2547 N.pl3   1  UNL1       -0.2104
      9 H         143.8896  140.8875  165.1894 H       1  UNL1        0.1739
     10 S         142.7336  142.3149  164.0395 S.O2    1  UNL1        0.0737
     11 O         142.6051  141.0318  163.2732 O.2     1  UNL1       -0.1499
     12 O         142.8622  143.5980  164.8057 O.2     1  UNL1       -0.1499
     13 C         142.3063  143.0834  162.8242 C.ar    1  UNL1        0.1261
     14 C         142.7670  142.6519  161.4636 C.ar    1  UNL1        0.0211
     15 C         142.3397  143.4204  160.2484 C.ar    1  UNL1        0.0136
     16 C         141.4516  144.6205  160.3938 C.ar    1  UNL1        0.0683
     17 CL        141.0243  145.3890  159.1786 Cl      1  UNL1       -0.0814
     18 C         140.9909  145.0520  161.7545 C.ar    1  UNL1        0.0695
     19 CL        140.1028  146.2521  161.9000 Cl      1  UNL1       -0.0813
     20 C         141.4182  144.2835  162.9698 C.ar    1  UNL1        0.0324
     21 O         140.2073  141.0899  165.5139 O.3     1  UNL1       -0.4349
     22 C         138.8494  141.7219  163.3910 C.ar    1  UNL1        0.0879
     23 C         137.9790  142.6902  162.6462 C.ar    1  UNL1        0.0076
     24 C         137.5961  143.9950  163.2795 C.ar    1  UNL1        0.0003
     25 C         138.0836  144.3313  164.6576 C.ar    1  UNL1        0.0031
     26 C         138.9539  143.3630  165.4024 C.ar    1  UNL1        0.0377
     27 C         139.3368  142.0583  164.7691 C.ar    1  UNL1        0.1515
     28 O         139.5849  140.3657  161.3006 O.2     1  UNL1       -0.2700
     29 C         139.2323  140.4172  162.7576 C.2     1  UNL1        0.2489
     30 N         139.2626  139.1640  163.5813 N.am    1  UNL1       -0.2984
     31 H         139.0311  139.1978  164.5376 H       1  UNL1        0.1498
     32 C         139.6455  137.8593  162.9480 C.3     1  UNL1        0.1215
     33 C         141.0824  137.5764  162.6231 C.3     1  UNL1        0.1583
     34 O         142.1643  138.0121  163.5663 O.3     1  UNL1       -0.3802
     35 H         142.1932  138.9810  163.5999 H       1  UNL1        0.2105
@<TRIPOS>BOND
     1    28    29    2
     2    29    30   am
     3    30    32    1
     4    32    33    1
     5    33    34    1
     6    29    22    1
     7    22    23   ar
     8    23    24   ar
     9    24    25   ar
    10    25    26   ar
    11    26    27   ar
    12    27    21    1
    13    21     1    1
    14     1     2   ar
    15     2     3   ar
    16     3     4   ar
    17     4     5    1
    18     4     6   ar
    19     6     7   ar
    20     7     8    1
    21     8    10    1
    22    10    11    2
    23    10    12    2
    24    10    13    1
    25    13    14   ar
    26    14    15   ar
    27    15    16   ar
    28    16    17    1
    29    16    18   ar
    30    18    19    1
    31    18    20   ar
    32    27    22   ar
    33     7     1   ar
    34    20    13   ar
    35    30    31    1
    36    34    35    1
    37     8     9    1
