@<TRIPOS>MOLECULE
*****
 33 36 0 0 0
SMALL
GASTEIGER

@<TRIPOS>ATOM
      1 N         140.9469  138.2353  164.3361 N.3     1  UNL1       -0.2680
      2 C         142.1504  138.5631  165.1693 C.3     1  UNL1        0.0897
      3 C         143.3677  139.1589  164.5266 C.3     1  UNL1        0.0897
      4 N         143.3816  139.4269  163.0508 N.3     1  UNL1       -0.2679
      5 C         142.1781  139.0991  162.2176 C.3     1  UNL1        0.0897
      6 C         140.9607  138.5033  162.8603 C.3     1  UNL1        0.0897
      7 C         139.7295  137.6396  164.9788 C.3     1  UNL1        0.1064
      8 C         138.6737  138.5337  165.5583 C.3     1  UNL1        0.1483
      9 O         137.7957  138.0360  166.6679 O.3     1  UNL1       -0.3786
     10 H         137.1722  138.7335  166.9245 H       1  UNL1        0.2108
     11 C         139.9604  140.8503  166.9648 C.3     1  UNL1        0.0306
     12 C         139.1394  141.0840  165.7313 C.ar    1  UNL1       -0.0238
     13 C         138.4960  139.9257  165.0281 C.ar    1  UNL1        0.0015
     14 C         137.6749  140.1593  163.7947 C.ar    1  UNL1       -0.0020
     15 C         137.4972  141.5512  163.2646 C.ar    1  UNL1        0.0060
     16 C         138.1405  142.7094  163.9678 C.ar    1  UNL1        0.0748
     17 C         138.9616  142.4758  165.2012 C.ar    1  UNL1        0.0233
     18 C         139.4710  143.8039  165.6774 C.3     1  UNL1        0.2352
     19 O         138.9647  144.8583  164.7382 O.3     1  UNL1       -0.4404
     20 C         138.1425  144.1819  163.6817 C.2     1  UNL1        0.3413
     21 O         137.4447  144.8591  162.5395 O.2     1  UNL1       -0.2449
     22 C         144.5990  140.0226  162.4082 C.3     1  UNL1        0.1080
     23 C         144.8991  141.4823  162.5792 C.3     1  UNL1        0.1660
     24 O         146.2586  141.9197  163.0381 O.3     1  UNL1       -0.3771
     25 H         146.8188  141.1403  163.1782 H       1  UNL1        0.2109
     26 C         143.8399  142.5046  162.2913 C.ar    1  UNL1        0.0871
     27 C         143.1903  143.2496  163.4196 C.ar    1  UNL1        0.0179
     28 C         142.1310  144.2719  163.1318 C.ar    1  UNL1        0.0131
     29 C         141.7213  144.5491  161.7157 C.ar    1  UNL1        0.0875
     30 C         142.3709  143.8041  160.5874 C.ar    1  UNL1        0.1088
     31 N         143.4302  142.7819  160.8752 N.ar    1  UNL1       -0.2450
     32 C         140.6620  145.5715  161.4277 C.1     1  UNL1        0.1020
     33 N         139.6027  146.5937  161.1399 N.1     1  UNL1       -0.1908
@<TRIPOS>BOND
     1    11    12    1
     2    12    13   ar
     3    13     8    1
     4     8     9    1
     5     8     7    1
     6     7     1    1
     7     1     2    1
     8     2     3    1
     9     3     4    1
    10     4    22    1
    11    22    23    1
    12    23    24    1
    13    23    26    1
    14    26    27   ar
    15    27    28   ar
    16    28    29   ar
    17    29    32    1
    18    32    33    3
    19    29    30   ar
    20    30    31   ar
    21     4     5    1
    22     5     6    1
    23    13    14   ar
    24    14    15   ar
    25    15    16   ar
    26    16    17   ar
    27    17    18    1
    28    18    19    1
    29    19    20    1
    30    20    21    2
    31    17    12   ar
    32     6     1    1
    33    20    16    1
    34    31    26   ar
    35     9    10    1
    36    24    25    1
@<TRIPOS>MOLECULE
*****
 33 36 0 0 0
SMALL
GASTEIGER

@<TRIPOS>ATOM
      1 N         140.5048  142.8212  161.1509 N.3     1  UNL1       -0.2680
      2 C         141.8785  142.8264  161.7532 C.3     1  UNL1        0.0897
      3 C         142.8223  141.6935  161.4782 C.3     1  UNL1        0.0897
      4 N         142.3924  140.5553  160.6008 N.3     1  UNL1       -0.2679
      5 C         141.0186  140.5501  159.9984 C.3     1  UNL1        0.0897
      6 C         140.0748  141.6830  160.2734 C.3     1  UNL1        0.0897
      7 C         139.5609  143.9541  161.4259 C.3     1  UNL1        0.1064
      8 C         138.4841  143.7993  162.4585 C.3     1  UNL1        0.1483
      9 O         137.4112  144.8399  162.5852 O.3     1  UNL1       -0.3786
     10 H         136.7995  144.5889  163.2949 H       1  UNL1        0.2108
     11 C         140.0383  143.8560  165.0240 C.3     1  UNL1        0.0306
     12 C         139.2571  142.6321  164.6472 C.ar    1  UNL1       -0.0238
     13 C         138.4800  142.6037  163.3645 C.ar    1  UNL1        0.0015
     14 C         137.6989  141.3799  162.9877 C.ar    1  UNL1       -0.0020
     15 C         137.6948  140.1844  163.8937 C.ar    1  UNL1        0.0060
     16 C         138.4719  140.2127  165.1764 C.ar    1  UNL1        0.0748
     17 C         139.2530  141.4366  165.5532 C.ar    1  UNL1        0.0233
     18 C         139.9189  141.1739  166.8713 C.3     1  UNL1        0.2352
     19 O         139.5493  139.7877  167.3092 O.3     1  UNL1       -0.4404
     20 C         138.6550  139.1936  166.2617 C.2     1  UNL1        0.3413
     21 O         138.0500  137.8214  166.2939 O.2     1  UNL1       -0.2449
     22 C         143.3362  139.4224  160.3258 C.3     1  UNL1        0.1080
     23 C         143.3567  138.2266  161.2311 C.3     1  UNL1        0.1660
     24 O         143.4701  136.8482  160.6505 O.3     1  UNL1       -0.3771
     25 H         143.5200  136.9078  159.6836 H       1  UNL1        0.2109
     26 C         143.2639  138.4092  162.7171 C.ar    1  UNL1        0.0871
     27 C         142.0360  137.9603  163.4525 C.ar    1  UNL1        0.0179
     28 C         141.9431  138.1428  164.9384 C.ar    1  UNL1        0.0131
     29 C         143.0780  138.7743  165.6889 C.ar    1  UNL1        0.0875
     30 C         144.3058  139.2233  164.9535 C.ar    1  UNL1        0.1088
     31 N         144.3987  139.0407  163.4675 N.ar    1  UNL1       -0.2450
     32 C         142.9851  138.9570  167.1749 C.1     1  UNL1        0.1020
     33 N         142.8922  139.1397  168.6608 N.1     1  UNL1       -0.1908
@<TRIPOS>BOND
     1    11    12    1
     2    12    13   ar
     3    13     8    1
     4     8     9    1
     5     8     7    1
     6     7     1    1
     7     1     2    1
     8     2     3    1
     9     3     4    1
    10     4    22    1
    11    22    23    1
    12    23    24    1
    13    23    26    1
    14    26    27   ar
    15    27    28   ar
    16    28    29   ar
    17    29    32    1
    18    32    33    3
    19    29    30   ar
    20    30    31   ar
    21     4     5    1
    22     5     6    1
    23    13    14   ar
    24    14    15   ar
    25    15    16   ar
    26    16    17   ar
    27    17    18    1
    28    18    19    1
    29    19    20    1
    30    20    21    2
    31    17    12   ar
    32     6     1    1
    33    20    16    1
    34    31    26   ar
    35     9    10    1
    36    24    25    1
@<TRIPOS>MOLECULE
*****
 33 36 0 0 0
SMALL
GASTEIGER

@<TRIPOS>ATOM
      1 N         144.8401  141.4032  163.4686 N.3     1  UNL1       -0.2680
      2 C         144.5084  141.6458  162.0260 C.3     1  UNL1        0.0897
      3 C         143.8244  140.5787  161.2240 C.3     1  UNL1        0.0897
      4 N         143.4720  139.2689  161.8646 N.3     1  UNL1       -0.2679
      5 C         143.8036  139.0263  163.3072 C.3     1  UNL1        0.0897
      6 C         144.4876  140.0934  164.1093 C.3     1  UNL1        0.0897
      7 C         145.5241  142.4703  164.2707 C.3     1  UNL1        0.1064
      8 C         144.7109  143.5074  164.9870 C.3     1  UNL1        0.1483
      9 O         145.3039  144.2601  166.1411 O.3     1  UNL1       -0.3786
     10 H         144.6505  144.8875  166.4879 H       1  UNL1        0.2108
     11 C         142.4117  142.1400  166.3450 C.3     1  UNL1        0.0306
     12 C         142.1550  143.1081  165.2283 C.ar    1  UNL1       -0.0238
     13 C         143.3046  143.7918  164.5493 C.ar    1  UNL1        0.0015
     14 C         143.0479  144.7599  163.4327 C.ar    1  UNL1       -0.0020
     15 C         141.6417  145.0443  162.9950 C.ar    1  UNL1        0.0060
     16 C         140.4921  144.3607  163.6740 C.ar    1  UNL1        0.0748
     17 C         140.7487  143.3925  164.7907 C.ar    1  UNL1        0.0233
     18 C         139.4247  142.8741  165.2682 C.3     1  UNL1        0.2352
     19 O         138.3497  143.5219  164.4467 O.3     1  UNL1       -0.4404
     20 C         139.0094  144.4406  163.4614 C.2     1  UNL1        0.3413
     21 O         138.3093  145.2901  162.4425 O.2     1  UNL1       -0.2449
     22 C         142.7879  138.2018  161.0625 C.3     1  UNL1        0.1080
     23 C         141.2898  138.1452  161.0128 C.3     1  UNL1        0.1660
     24 O         140.5860  138.0606  159.6909 O.3     1  UNL1       -0.3771
     25 H         141.2412  138.0526  158.9757 H       1  UNL1        0.2109
     26 C         140.4955  138.1731  162.2850 C.ar    1  UNL1        0.0871
     27 C         140.8108  137.2058  163.3872 C.ar    1  UNL1        0.0179
     28 C         140.0167  137.2336  164.6594 C.ar    1  UNL1        0.0131
     29 C         138.9072  138.2287  164.8293 C.ar    1  UNL1        0.0875
     30 C         138.5919  139.1959  163.7271 C.ar    1  UNL1        0.1088
     31 N         139.3861  139.1681  162.4549 N.ar    1  UNL1       -0.2450
     32 C         138.1129  138.2566  166.1016 C.1     1  UNL1        0.1020
     33 N         137.3187  138.2844  167.3737 N.1     1  UNL1       -0.1908
@<TRIPOS>BOND
     1    11    12    1
     2    12    13   ar
     3    13     8    1
     4     8     9    1
     5     8     7    1
     6     7     1    1
     7     1     2    1
     8     2     3    1
     9     3     4    1
    10     4    22    1
    11    22    23    1
    12    23    24    1
    13    23    26    1
    14    26    27   ar
    15    27    28   ar
    16    28    29   ar
    17    29    32    1
    18    32    33    3
    19    29    30   ar
    20    30    31   ar
    21     4     5    1
    22     5     6    1
    23    13    14   ar
    24    14    15   ar
    25    15    16   ar
    26    16    17   ar
    27    17    18    1
    28    18    19    1
    29    19    20    1
    30    20    21    2
    31    17    12   ar
    32     6     1    1
    33    20    16    1
    34    31    26   ar
    35     9    10    1
    36    24    25    1
@<TRIPOS>MOLECULE
*****
 33 36 0 0 0
SMALL
GASTEIGER

@<TRIPOS>ATOM
      1 N         144.1813  141.5591  165.0612 N.3     1  UNL1       -0.2680
      2 C         143.8579  140.0944  165.0569 C.3     1  UNL1        0.0897
      3 C         142.9036  139.5342  166.0696 C.3     1  UNL1        0.0897
      4 N         142.2729  140.4387  167.0865 N.3     1  UNL1       -0.2679
      5 C         142.5964  141.9034  167.0908 C.3     1  UNL1        0.0897
      6 C         143.5506  142.4636  166.0781 C.3     1  UNL1        0.0897
      7 C         145.1356  142.1193  164.0485 C.3     1  UNL1        0.1064
      8 C         144.6633  142.4139  162.6556 C.3     1  UNL1        0.1483
      9 O         145.6438  142.4379  161.5206 O.3     1  UNL1       -0.3786
     10 H         145.1775  142.6420  160.6948 H       1  UNL1        0.2108
     11 C         143.5154  145.1236  163.2389 C.3     1  UNL1        0.0306
     12 C         142.6366  144.0392  162.6893 C.ar    1  UNL1       -0.0238
     13 C         143.2105  142.6843  162.3976 C.ar    1  UNL1        0.0015
     14 C         142.3319  141.6001  161.8480 C.ar    1  UNL1       -0.0020
     15 C         140.8792  141.8705  161.5901 C.ar    1  UNL1        0.0060
     16 C         140.3052  143.2253  161.8817 C.ar    1  UNL1        0.0748
     17 C         141.1839  144.3097  162.4313 C.ar    1  UNL1        0.0233
     18 C         140.3427  145.5372  162.6197 C.3     1  UNL1        0.2352
     19 O         138.9440  145.2115  162.1865 O.3     1  UNL1       -0.4404
     20 C         138.9209  143.7827  161.7304 C.2     1  UNL1        0.3413
     21 O         137.7235  143.0414  161.2137 O.2     1  UNL1       -0.2449
     22 C         141.3187  139.8784  168.0992 C.3     1  UNL1        0.1080
     23 C         139.8480  139.8442  167.8056 C.3     1  UNL1        0.1660
     24 O         138.8579  139.8551  168.9324 O.3     1  UNL1       -0.3771
     25 H         139.3313  139.8854  169.7785 H       1  UNL1        0.2109
     26 C         139.3676  139.7991  166.3854 C.ar    1  UNL1        0.0871
     27 C         138.9761  141.0667  165.6855 C.ar    1  UNL1        0.0179
     28 C         138.4956  141.0217  164.2653 C.ar    1  UNL1        0.0131
     29 C         138.4068  139.7090  163.5449 C.ar    1  UNL1        0.0875
     30 C         138.7984  138.4414  164.2447 C.ar    1  UNL1        0.1088
     31 N         139.2788  138.4864  165.6650 N.ar    1  UNL1       -0.2450
     32 C         137.9264  139.6639  162.1245 C.1     1  UNL1        0.1020
     33 N         137.4459  139.6187  160.7043 N.1     1  UNL1       -0.1908
@<TRIPOS>BOND
     1    11    12    1
     2    12    13   ar
     3    13     8    1
     4     8     9    1
     5     8     7    1
     6     7     1    1
     7     1     2    1
     8     2     3    1
     9     3     4    1
    10     4    22    1
    11    22    23    1
    12    23    24    1
    13    23    26    1
    14    26    27   ar
    15    27    28   ar
    16    28    29   ar
    17    29    32    1
    18    32    33    3
    19    29    30   ar
    20    30    31   ar
    21     4     5    1
    22     5     6    1
    23    13    14   ar
    24    14    15   ar
    25    15    16   ar
    26    16    17   ar
    27    17    18    1
    28    18    19    1
    29    19    20    1
    30    20    21    2
    31    17    12   ar
    32     6     1    1
    33    20    16    1
    34    31    26   ar
    35     9    10    1
    36    24    25    1
@<TRIPOS>MOLECULE
*****
 33 36 0 0 0
SMALL
GASTEIGER

@<TRIPOS>ATOM
      1 N         137.8038  142.9084  163.1508 N.3     1  UNL1       -0.2680
      2 C         137.5892  141.5304  163.7030 C.3     1  UNL1        0.0897
      3 C         137.7898  140.3310  162.8248 C.3     1  UNL1        0.0897
      4 N         138.2050  140.5096  161.3945 N.3     1  UNL1       -0.2679
      5 C         138.4196  141.8877  160.8423 C.3     1  UNL1        0.0897
      6 C         138.2190  143.0871  161.7204 C.3     1  UNL1        0.0897
      7 C         137.6033  144.1079  164.0289 C.3     1  UNL1        0.1064
      8 C         138.7140  144.5791  164.9200 C.3     1  UNL1        0.1483
      9 O         138.4350  145.5821  165.9999 O.3     1  UNL1       -0.3786
     10 H         139.2550  145.7770  166.4799 H       1  UNL1        0.2108
     11 C         140.5053  145.7712  162.8294 C.3     1  UNL1        0.0306
     12 C         140.9995  144.6434  163.6860 C.ar    1  UNL1       -0.0238
     13 C         140.1039  144.0473  164.7313 C.ar    1  UNL1        0.0015
     14 C         140.5981  142.9195  165.5879 C.ar    1  UNL1       -0.0020
     15 C         141.9879  142.3877  165.3992 C.ar    1  UNL1        0.0060
     16 C         142.8835  142.9837  164.3539 C.ar    1  UNL1        0.0748
     17 C         142.3893  144.1115  163.4973 C.ar    1  UNL1        0.0233
     18 C         143.4915  144.4954  162.5551 C.3     1  UNL1        0.2352
     19 O         144.6669  143.6047  162.8293 O.3     1  UNL1       -0.4404
     20 C         144.2911  142.6704  163.9411 C.2     1  UNL1        0.3413
     21 O         145.1689  141.6093  164.5355 O.2     1  UNL1       -0.2449
     22 C         138.4055  139.3102  160.5164 C.3     1  UNL1        0.1080
     23 C         139.7426  138.6321  160.4667 C.3     1  UNL1        0.1660
     24 O         140.2487  138.0660  159.1731 O.3     1  UNL1       -0.3771
     25 H         139.5946  138.2220  158.4740 H       1  UNL1        0.2109
     26 C         140.5735  138.5202  161.7104 C.ar    1  UNL1        0.0871
     27 C         141.6197  139.5529  162.0088 C.ar    1  UNL1        0.0179
     28 C         142.4507  139.4411  163.2526 C.ar    1  UNL1        0.0131
     29 C         142.2355  138.2966  164.1980 C.ar    1  UNL1        0.0875
     30 C         141.1893  137.2639  163.8996 C.ar    1  UNL1        0.1088
     31 N         140.3583  137.3757  162.6558 N.ar    1  UNL1       -0.2450
     32 C         143.0664  138.1847  165.4418 C.1     1  UNL1        0.1020
     33 N         143.8973  138.0728  166.6857 N.1     1  UNL1       -0.1908
@<TRIPOS>BOND
     1    11    12    1
     2    12    13   ar
     3    13     8    1
     4     8     9    1
     5     8     7    1
     6     7     1    1
     7     1     2    1
     8     2     3    1
     9     3     4    1
    10     4    22    1
    11    22    23    1
    12    23    24    1
    13    23    26    1
    14    26    27   ar
    15    27    28   ar
    16    28    29   ar
    17    29    32    1
    18    32    33    3
    19    29    30   ar
    20    30    31   ar
    21     4     5    1
    22     5     6    1
    23    13    14   ar
    24    14    15   ar
    25    15    16   ar
    26    16    17   ar
    27    17    18    1
    28    18    19    1
    29    19    20    1
    30    20    21    2
    31    17    12   ar
    32     6     1    1
    33    20    16    1
    34    31    26   ar
    35     9    10    1
    36    24    25    1
@<TRIPOS>MOLECULE
*****
 33 36 0 0 0
SMALL
GASTEIGER

@<TRIPOS>ATOM
      1 N         144.9218  141.4211  163.3094 N.3     1  UNL1       -0.2680
      2 C         144.6217  139.9968  163.6716 C.3     1  UNL1        0.0897
      3 C         144.0042  139.0794  162.6582 C.3     1  UNL1        0.0897
      4 N         143.6868  139.5862  161.2826 N.3     1  UNL1       -0.2679
      5 C         143.9869  141.0106  160.9204 C.3     1  UNL1        0.0897
      6 C         144.6044  141.9281  161.9337 C.3     1  UNL1        0.0897
      7 C         145.5393  142.3386  164.3227 C.3     1  UNL1        0.1064
      8 C         144.6676  143.2279  165.1589 C.3     1  UNL1        0.1483
      9 O         145.2840  144.1342  166.1830 O.3     1  UNL1       -0.3786
     10 H         144.5862  144.6366  166.6319 H       1  UNL1        0.2108
     11 C         143.3608  145.2357  163.3530 C.3     1  UNL1        0.0306
     12 C         142.5261  144.2149  164.0680 C.ar    1  UNL1       -0.0238
     13 C         143.1795  143.2109  164.9710 C.ar    1  UNL1        0.0015
     14 C         142.3449  142.1902  165.6860 C.ar    1  UNL1       -0.0020
     15 C         140.8568  142.1732  165.4981 C.ar    1  UNL1        0.0060
     16 C         140.2033  143.1771  164.5952 C.ar    1  UNL1        0.0748
     17 C         141.0380  144.1979  163.8801 C.ar    1  UNL1        0.0233
     18 C         140.1200  145.0553  163.0602 C.3     1  UNL1        0.2352
     19 O         138.7181  144.5643  163.2685 O.3     1  UNL1       -0.4404
     20 C         138.7695  143.4035  164.2172 C.2     1  UNL1        0.3413
     21 O         137.5936  142.6088  164.7026 O.2     1  UNL1       -0.2449
     22 C         143.0692  138.6688  160.2693 C.3     1  UNL1        0.1080
     23 C         141.5815  138.4795  160.2369 C.3     1  UNL1        0.1660
     24 O         140.8844  138.2394  158.9307 O.3     1  UNL1       -0.3771
     25 H         141.5360  138.2364  158.2122 H       1  UNL1        0.2109
     26 C         140.7911  138.5304  161.5107 C.ar    1  UNL1        0.0871
     27 C         140.0193  139.7666  161.8655 C.ar    1  UNL1        0.0179
     28 C         139.2288  139.8176  163.1393 C.ar    1  UNL1        0.0131
     29 C         139.2103  138.6323  164.0583 C.ar    1  UNL1        0.0875
     30 C         139.9822  137.3960  163.7036 C.ar    1  UNL1        0.1088
     31 N         140.7726  137.3450  162.4298 N.ar    1  UNL1       -0.2450
     32 C         138.4198  138.6831  165.3322 C.1     1  UNL1        0.1020
     33 N         137.6293  138.7340  166.6060 N.1     1  UNL1       -0.1908
@<TRIPOS>BOND
     1    11    12    1
     2    12    13   ar
     3    13     8    1
     4     8     9    1
     5     8     7    1
     6     7     1    1
     7     1     2    1
     8     2     3    1
     9     3     4    1
    10     4    22    1
    11    22    23    1
    12    23    24    1
    13    23    26    1
    14    26    27   ar
    15    27    28   ar
    16    28    29   ar
    17    29    32    1
    18    32    33    3
    19    29    30   ar
    20    30    31   ar
    21     4     5    1
    22     5     6    1
    23    13    14   ar
    24    14    15   ar
    25    15    16   ar
    26    16    17   ar
    27    17    18    1
    28    18    19    1
    29    19    20    1
    30    20    21    2
    31    17    12   ar
    32     6     1    1
    33    20    16    1
    34    31    26   ar
    35     9    10    1
    36    24    25    1
@<TRIPOS>MOLECULE
*****
 33 36 0 0 0
SMALL
GASTEIGER

@<TRIPOS>ATOM
      1 N         138.7790  139.9188  161.9323 N.3     1  UNL1       -0.2680
      2 C         137.8219  141.0731  161.8927 C.3     1  UNL1        0.0897
      3 C         138.1708  142.3103  161.1197 C.3     1  UNL1        0.0897
      4 N         139.4767  142.3932  160.3863 N.3     1  UNL1       -0.2679
      5 C         140.4337  141.2388  160.4259 C.3     1  UNL1        0.0897
      6 C         140.0849  140.0016  161.1989 C.3     1  UNL1        0.0897
      7 C         138.4302  138.6816  162.7054 C.3     1  UNL1        0.1064
      8 C         139.3702  138.1613  163.7521 C.3     1  UNL1        0.1483
      9 O         140.3708  137.1004  163.4009 O.3     1  UNL1       -0.3786
     10 H         140.8961  136.8789  164.1857 H       1  UNL1        0.2108
     11 C         141.6078  139.8625  164.8007 C.3     1  UNL1        0.0306
     12 C         140.4284  139.5525  165.6743 C.ar    1  UNL1       -0.0238
     13 C         139.3096  138.7019  165.1500 C.ar    1  UNL1        0.0015
     14 C         138.1304  138.3919  166.0236 C.ar    1  UNL1       -0.0020
     15 C         138.0698  138.9325  167.4214 C.ar    1  UNL1        0.0060
     16 C         139.1885  139.7831  167.9458 C.ar    1  UNL1        0.0748
     17 C         140.3678  140.0931  167.0722 C.ar    1  UNL1        0.0233
     18 C         141.3133  140.9528  167.8577 C.3     1  UNL1        0.2352
     19 O         140.7183  141.1741  169.2167 O.3     1  UNL1       -0.4404
     20 C         139.4051  140.4512  169.2712 C.2     1  UNL1        0.3413
     21 O         138.4723  140.4046  170.4449 O.2     1  UNL1       -0.2449
     22 C         139.8255  143.6304  159.6132 C.3     1  UNL1        0.1080
     23 C         140.3195  144.8502  160.3330 C.3     1  UNL1        0.1660
     24 O         139.8401  146.2102  159.9200 O.3     1  UNL1       -0.3771
     25 H         139.2202  146.1233  159.1790 H       1  UNL1        0.2109
     26 C         141.2929  144.7100  161.4656 C.ar    1  UNL1        0.0871
     27 C         140.8733  145.0596  162.8626 C.ar    1  UNL1        0.0179
     28 C         141.8466  144.9194  163.9953 C.ar    1  UNL1        0.0131
     29 C         143.2395  144.4296  163.7309 C.ar    1  UNL1        0.0875
     30 C         143.6591  144.0800  162.3339 C.ar    1  UNL1        0.1088
     31 N         142.6858  144.2202  161.2012 N.ar    1  UNL1       -0.2450
     32 C         144.2129  144.2893  164.8636 C.1     1  UNL1        0.1020
     33 N         145.1863  144.1490  165.9962 N.1     1  UNL1       -0.1908
@<TRIPOS>BOND
     1    11    12    1
     2    12    13   ar
     3    13     8    1
     4     8     9    1
     5     8     7    1
     6     7     1    1
     7     1     2    1
     8     2     3    1
     9     3     4    1
    10     4    22    1
    11    22    23    1
    12    23    24    1
    13    23    26    1
    14    26    27   ar
    15    27    28   ar
    16    28    29   ar
    17    29    32    1
    18    32    33    3
    19    29    30   ar
    20    30    31   ar
    21     4     5    1
    22     5     6    1
    23    13    14   ar
    24    14    15   ar
    25    15    16   ar
    26    16    17   ar
    27    17    18    1
    28    18    19    1
    29    19    20    1
    30    20    21    2
    31    17    12   ar
    32     6     1    1
    33    20    16    1
    34    31    26   ar
    35     9    10    1
    36    24    25    1
@<TRIPOS>MOLECULE
*****
 33 36 0 0 0
SMALL
GASTEIGER

@<TRIPOS>ATOM
      1 N         138.2396  140.9142  164.1832 N.3     1  UNL1       -0.2680
      2 C         138.2270  142.1400  165.0476 C.3     1  UNL1        0.0897
      3 C         138.3468  143.4988  164.4238 C.3     1  UNL1        0.0897
      4 N         138.4792  143.6318  162.9356 N.3     1  UNL1       -0.2679
      5 C         138.4917  142.4060  162.0711 C.3     1  UNL1        0.0897
      6 C         138.3719  141.0472  162.6949 C.3     1  UNL1        0.0897
      7 C         138.1198  139.5553  164.8070 C.3     1  UNL1        0.1064
      8 C         139.2355  139.0175  165.6531 C.3     1  UNL1        0.1483
      9 O         139.9498  137.7636  165.2438 O.3     1  UNL1       -0.3786
     10 H         140.6378  137.5561  165.8953 H       1  UNL1        0.2108
     11 C         141.7077  140.7166  165.6857 C.3     1  UNL1        0.0306
     12 C         140.8730  140.5832  166.9249 C.ar    1  UNL1       -0.0238
     13 C         139.6369  139.7336  166.9086 C.ar    1  UNL1        0.0015
     14 C         138.8022  139.6001  168.1477 C.ar    1  UNL1       -0.0020
     15 C         139.2036  140.3161  169.4031 C.ar    1  UNL1        0.0060
     16 C         140.4397  141.1657  169.4194 C.ar    1  UNL1        0.0748
     17 C         141.2744  141.2992  168.1803 C.ar    1  UNL1        0.0233
     18 C         142.4315  142.2002  168.4957 C.3     1  UNL1        0.2352
     19 O         142.3119  142.6234  169.9297 O.3     1  UNL1       -0.4404
     20 C         141.0809  141.9841  170.5006 C.2     1  UNL1        0.3413
     21 O         140.5792  142.1365  171.9060 O.2     1  UNL1       -0.2449
     22 C         138.5989  144.9907  162.3118 C.3     1  UNL1        0.1080
     23 C         139.9341  145.6714  162.2473 C.3     1  UNL1        0.1660
     24 O         140.0125  147.1442  161.9739 O.3     1  UNL1       -0.3771
     25 H         139.1172  147.5008  161.8642 H       1  UNL1        0.2109
     26 C         141.1906  144.8793  162.4562 C.ar    1  UNL1        0.0871
     27 C         141.9189  144.9597  163.7651 C.ar    1  UNL1        0.0179
     28 C         143.1755  144.1677  163.9741 C.ar    1  UNL1        0.0131
     29 C         143.7037  143.2952  162.8742 C.ar    1  UNL1        0.0875
     30 C         142.9754  143.2148  161.5654 C.ar    1  UNL1        0.1088
     31 N         141.7189  144.0069  161.3564 N.ar    1  UNL1       -0.2450
     32 C         144.9603  142.5031  163.0831 C.1     1  UNL1        0.1020
     33 N         146.2168  141.7110  163.2921 N.1     1  UNL1       -0.1908
@<TRIPOS>BOND
     1    11    12    1
     2    12    13   ar
     3    13     8    1
     4     8     9    1
     5     8     7    1
     6     7     1    1
     7     1     2    1
     8     2     3    1
     9     3     4    1
    10     4    22    1
    11    22    23    1
    12    23    24    1
    13    23    26    1
    14    26    27   ar
    15    27    28   ar
    16    28    29   ar
    17    29    32    1
    18    32    33    3
    19    29    30   ar
    20    30    31   ar
    21     4     5    1
    22     5     6    1
    23    13    14   ar
    24    14    15   ar
    25    15    16   ar
    26    16    17   ar
    27    17    18    1
    28    18    19    1
    29    19    20    1
    30    20    21    2
    31    17    12   ar
    32     6     1    1
    33    20    16    1
    34    31    26   ar
    35     9    10    1
    36    24    25    1
@<TRIPOS>MOLECULE
*****
 33 36 0 0 0
SMALL
GASTEIGER

@<TRIPOS>ATOM
      1 N         141.3160  143.2921  160.6311 N.3     1  UNL1       -0.2680
      2 C         140.1291  142.4274  160.3252 C.3     1  UNL1        0.0897
      3 C         140.3149  140.9605  160.0734 C.3     1  UNL1        0.0897
      4 N         141.6876  140.3581  160.1275 N.3     1  UNL1       -0.2679
      5 C         142.8745  141.2227  160.4334 C.3     1  UNL1        0.0897
      6 C         142.6888  142.6897  160.6853 C.3     1  UNL1        0.0897
      7 C         141.1303  144.7590  160.8829 C.3     1  UNL1        0.1064
      8 C         140.7829  145.2458  162.2585 C.3     1  UNL1        0.1483
      9 O         140.4540  146.6922  162.4815 O.3     1  UNL1       -0.3786
     10 H         140.2542  146.8375  163.4195 H       1  UNL1        0.2108
     11 C         143.3165  144.6388  163.7460 C.3     1  UNL1        0.0306
     12 C         142.0311  143.9826  164.1550 C.ar    1  UNL1       -0.0238
     13 C         140.7643  144.2860  163.4113 C.ar    1  UNL1        0.0015
     14 C         139.4790  143.6299  163.8202 C.ar    1  UNL1       -0.0020
     15 C         139.4603  142.6702  164.9728 C.ar    1  UNL1        0.0060
     16 C         140.7271  142.3667  165.7166 C.ar    1  UNL1        0.0748
     17 C         142.0125  143.0229  165.3077 C.ar    1  UNL1        0.0233
     18 C         143.0951  142.5321  166.2226 C.3     1  UNL1        0.2352
     19 O         142.4788  141.5726  167.1970 O.3     1  UNL1       -0.4404
     20 C         141.0153  141.4703  166.8843 C.2     1  UNL1        0.3413
     21 O         140.0156  140.6209  167.6115 O.2     1  UNL1       -0.2449
     22 C         141.8733  138.8911  159.8757 C.3     1  UNL1        0.1080
     23 C         142.1154  137.9576  161.0246 C.3     1  UNL1        0.1660
     24 O         143.2761  137.0082  160.9877 O.3     1  UNL1       -0.3771
     25 H         143.7644  137.1266  160.1579 H       1  UNL1        0.2109
     26 C         141.1969  137.9735  162.2103 C.ar    1  UNL1        0.0871
     27 C         141.7333  138.3102  163.5700 C.ar    1  UNL1        0.0179
     28 C         140.8148  138.3261  164.7558 C.ar    1  UNL1        0.0131
     29 C         139.3599  138.0053  164.5819 C.ar    1  UNL1        0.0875
     30 C         138.8234  137.6686  163.2221 C.ar    1  UNL1        0.1088
     31 N         139.7419  137.6527  162.0364 N.ar    1  UNL1       -0.2450
     32 C         138.4413  138.0212  165.7677 C.1     1  UNL1        0.1020
     33 N         137.5226  138.0372  166.9533 N.1     1  UNL1       -0.1908
@<TRIPOS>BOND
     1    11    12    1
     2    12    13   ar
     3    13     8    1
     4     8     9    1
     5     8     7    1
     6     7     1    1
     7     1     2    1
     8     2     3    1
     9     3     4    1
    10     4    22    1
    11    22    23    1
    12    23    24    1
    13    23    26    1
    14    26    27   ar
    15    27    28   ar
    16    28    29   ar
    17    29    32    1
    18    32    33    3
    19    29    30   ar
    20    30    31   ar
    21     4     5    1
    22     5     6    1
    23    13    14   ar
    24    14    15   ar
    25    15    16   ar
    26    16    17   ar
    27    17    18    1
    28    18    19    1
    29    19    20    1
    30    20    21    2
    31    17    12   ar
    32     6     1    1
    33    20    16    1
    34    31    26   ar
    35     9    10    1
    36    24    25    1
