@<TRIPOS>MOLECULE
*****
 32 35 0 0 0
SMALL
GASTEIGER

@<TRIPOS>ATOM
      1 C         141.6765  140.9719  163.2482 C.ar    1  UNL1        0.0103
      2 C         141.7516  142.1415  162.3121 C.ar    1  UNL1        0.0352
      3 C         142.4371  143.4042  162.7430 C.ar    1  UNL1        0.1384
      4 C         143.0475  143.4973  164.1100 C.ar    1  UNL1        0.0382
      5 C         142.9725  142.3276  165.0462 C.ar    1  UNL1        0.0175
      6 C         142.2870  141.0649  164.6153 C.ar    1  UNL1        0.0468
      7 N         142.2119  139.8953  165.5514 N.pl3   1  UNL1       -0.2981
      8 H         142.8984  139.1906  165.5146 H       1  UNL1        0.1536
      9 C         141.0909  139.7994  166.5434 C.ar    1  UNL1        0.1353
     10 N         139.7227  139.3831  166.0912 N.ar    1  UNL1       -0.2089
     11 C         138.6017  139.2872  167.0833 C.ar    1  UNL1        0.2000
     12 N         138.8490  139.6076  168.5276 N.ar    1  UNL1       -0.2239
     13 C         140.2173  140.0239  168.9799 C.ar    1  UNL1        0.0857
     14 C         140.4645  140.3443  170.4243 C.ar    1  UNL1        0.0192
     15 C         141.8328  140.7606  170.8765 C.ar    1  UNL1        0.0015
     16 C         142.9538  140.8565  169.8844 C.ar    1  UNL1        0.0002
     17 C         142.7065  140.5361  168.4401 C.ar    1  UNL1        0.0043
     18 C         141.3383  140.1198  167.9879 C.ar    1  UNL1        0.0494
     19 C         140.9911  139.7092  162.8173 C.3     1  UNL1        0.1005
     20 C         143.1202  138.3033  162.3274 C.3     1  UNL1        0.0899
     21 N         141.7250  138.4021  162.8693 N.3     1  UNL1       -0.2665
     22 C         141.0637  137.1937  163.4630 C.3     1  UNL1        0.0899
     23 O         142.5122  144.5738  161.8069 O.3     1  UNL1       -0.4754
     24 C         141.5828  144.6553  160.6323 C.3     1  UNL1        0.2068
     25 C         140.3529  145.5108  160.7069 C.3     1  UNL1        0.0646
     26 C         139.7397  145.8281  162.0386 C.3     1  UNL1        0.0759
     27 N         139.2228  144.7213  162.9090 N.3     1  UNL1       -0.2726
     28 C         138.3244  143.6689  162.3299 C.3     1  UNL1        0.0721
     29 C         137.8074  142.5621  163.2003 C.3     1  UNL1        0.0174
     30 C         138.1888  142.5076  164.6500 C.3     1  UNL1        0.0029
     31 C         139.0872  143.5600  165.2292 C.3     1  UNL1        0.0174
     32 C         139.6042  144.6668  164.3587 C.3     1  UNL1        0.0721
@<TRIPOS>BOND
     1    20    21    1
     2    21    22    1
     3    21    19    1
     4    19     1    1
     5     1     2   ar
     6     2     3   ar
     7     3    23    1
     8    23    24    1
     9    24    25    1
    10    25    26    1
    11    26    27    1
    12    27    28    1
    13    28    29    1
    14    29    30    1
    15    30    31    1
    16    31    32    1
    17     3     4   ar
    18     4     5   ar
    19     5     6   ar
    20     6     7    1
    21     7     9    1
    22     9    10   ar
    23    10    11   ar
    24    11    12   ar
    25    12    13   ar
    26    13    14   ar
    27    14    15   ar
    28    15    16   ar
    29    16    17   ar
    30    17    18   ar
    31     6     1   ar
    32    18     9   ar
    33    32    27    1
    34    18    13   ar
    35     7     8    1
@<TRIPOS>MOLECULE
*****
 32 35 0 0 0
SMALL
GASTEIGER

@<TRIPOS>ATOM
      1 C         138.4317  141.9509  163.9237 C.ar    1  UNL1        0.0103
      2 C         138.3124  143.0267  162.8853 C.ar    1  UNL1        0.0352
      3 C         138.8465  144.4005  163.1639 C.ar    1  UNL1        0.1384
      4 C         139.4999  144.6983  164.4808 C.ar    1  UNL1        0.0382
      5 C         139.6192  143.6224  165.5193 C.ar    1  UNL1        0.0175
      6 C         139.0851  142.2487  165.2407 C.ar    1  UNL1        0.0468
      7 N         139.2044  141.1728  166.2790 N.pl3   1  UNL1       -0.2981
      8 H         138.3938  140.7593  166.6548 H       1  UNL1        0.1536
      9 C         140.5587  140.7268  166.7448 C.ar    1  UNL1        0.1353
     10 N         141.2501  139.5866  166.0579 N.ar    1  UNL1       -0.2089
     11 C         142.6044  139.1406  166.5237 C.ar    1  UNL1        0.2000
     12 N         143.2673  139.8348  167.6763 N.ar    1  UNL1       -0.2239
     13 C         142.5759  140.9751  168.3632 C.ar    1  UNL1        0.0857
     14 C         143.2388  141.6693  169.5159 C.ar    1  UNL1        0.0192
     15 C         142.5474  142.8095  170.2027 C.ar    1  UNL1        0.0015
     16 C         141.1931  143.2555  169.7369 C.ar    1  UNL1        0.0002
     17 C         140.5302  142.5613  168.5843 C.ar    1  UNL1        0.0043
     18 C         141.2216  141.4211  167.8975 C.ar    1  UNL1        0.0494
     19 C         137.8976  140.5771  163.6451 C.3     1  UNL1        0.1005
     20 C         138.6995  138.1781  164.2382 C.3     1  UNL1        0.0899
     21 N         138.8443  139.4337  163.4303 N.3     1  UNL1       -0.2665
     22 C         139.9358  139.5457  162.4075 C.3     1  UNL1        0.0899
     23 O         138.7273  145.4763  162.1256 O.3     1  UNL1       -0.4754
     24 C         139.9348  145.9013  161.3438 C.3     1  UNL1        0.2068
     25 C         140.5763  144.9494  160.3781 C.3     1  UNL1        0.0646
     26 C         141.9717  144.4576  160.6248 C.3     1  UNL1        0.0759
     27 N         142.3587  143.9490  161.9818 N.3     1  UNL1       -0.2726
     28 C         143.0760  144.8491  162.9437 C.3     1  UNL1        0.0721
     29 C         143.4630  144.3404  164.3007 C.3     1  UNL1        0.0174
     30 C         143.1327  142.9315  164.6958 C.3     1  UNL1        0.0029
     31 C         142.4154  142.0314  163.7339 C.3     1  UNL1        0.0174
     32 C         142.0284  142.5401  162.3768 C.3     1  UNL1        0.0721
@<TRIPOS>BOND
     1    20    21    1
     2    21    22    1
     3    21    19    1
     4    19     1    1
     5     1     2   ar
     6     2     3   ar
     7     3    23    1
     8    23    24    1
     9    24    25    1
    10    25    26    1
    11    26    27    1
    12    27    28    1
    13    28    29    1
    14    29    30    1
    15    30    31    1
    16    31    32    1
    17     3     4   ar
    18     4     5   ar
    19     5     6   ar
    20     6     7    1
    21     7     9    1
    22     9    10   ar
    23    10    11   ar
    24    11    12   ar
    25    12    13   ar
    26    13    14   ar
    27    14    15   ar
    28    15    16   ar
    29    16    17   ar
    30    17    18   ar
    31     6     1   ar
    32    18     9   ar
    33    32    27    1
    34    18    13   ar
    35     7     8    1
@<TRIPOS>MOLECULE
*****
 32 35 0 0 0
SMALL
GASTEIGER

@<TRIPOS>ATOM
      1 C         138.1157  141.4512  163.2650 C.ar    1  UNL1        0.0103
      2 C         138.0798  142.7263  162.4759 C.ar    1  UNL1        0.0352
      3 C         138.4796  144.0197  163.1220 C.ar    1  UNL1        0.1384
      4 C         138.9154  144.0379  164.5571 C.ar    1  UNL1        0.0382
      5 C         138.9513  142.7627  165.3463 C.ar    1  UNL1        0.0175
      6 C         138.5515  141.4694  164.7003 C.ar    1  UNL1        0.0468
      7 N         138.5874  140.1942  165.4894 N.pl3   1  UNL1       -0.2981
      8 H         137.9374  139.4795  165.2997 H       1  UNL1        0.1536
      9 C         139.6136  140.0080  166.5674 C.ar    1  UNL1        0.1353
     10 N         139.2634  140.3045  167.9955 N.ar    1  UNL1       -0.2089
     11 C         140.2896  140.1182  169.0736 C.ar    1  UNL1        0.2000
     12 N         141.6660  139.6356  168.7236 N.ar    1  UNL1       -0.2239
     13 C         142.0162  139.3391  167.2954 C.ar    1  UNL1        0.0857
     14 C         143.3926  138.8564  166.9454 C.ar    1  UNL1        0.0192
     15 C         143.7428  138.5600  165.5173 C.ar    1  UNL1        0.0015
     16 C         142.7166  138.7462  164.4393 C.ar    1  UNL1        0.0002
     17 C         141.3402  139.2289  164.7893 C.ar    1  UNL1        0.0043
     18 C         140.9900  139.5253  166.2174 C.ar    1  UNL1        0.0494
     19 C         137.7158  140.1579  162.6190 C.3     1  UNL1        0.1005
     20 C         138.6686  137.7467  162.7873 C.3     1  UNL1        0.0899
     21 N         138.7618  139.1462  162.2555 N.3     1  UNL1       -0.2665
     22 C         139.9011  139.5339  161.3601 C.3     1  UNL1        0.0899
     23 O         138.4437  145.2948  162.3329 O.3     1  UNL1       -0.4754
     24 C         139.7238  145.9376  161.8877 C.3     1  UNL1        0.2068
     25 C         141.0054  145.1589  161.9215 C.3     1  UNL1        0.0646
     26 C         141.9631  145.3398  163.0617 C.3     1  UNL1        0.0759
     27 N         142.8565  144.2089  163.4775 N.3     1  UNL1       -0.2726
     28 C         144.0221  143.8188  162.6177 C.3     1  UNL1        0.0721
     29 C         144.9154  142.6879  163.0335 C.3     1  UNL1        0.0174
     30 C         144.6432  141.9471  164.3092 C.3     1  UNL1        0.0029
     31 C         143.4777  142.3372  165.1690 C.3     1  UNL1        0.0174
     32 C         142.5843  143.4682  164.7531 C.3     1  UNL1        0.0721
@<TRIPOS>BOND
     1    20    21    1
     2    21    22    1
     3    21    19    1
     4    19     1    1
     5     1     2   ar
     6     2     3   ar
     7     3    23    1
     8    23    24    1
     9    24    25    1
    10    25    26    1
    11    26    27    1
    12    27    28    1
    13    28    29    1
    14    29    30    1
    15    30    31    1
    16    31    32    1
    17     3     4   ar
    18     4     5   ar
    19     5     6   ar
    20     6     7    1
    21     7     9    1
    22     9    10   ar
    23    10    11   ar
    24    11    12   ar
    25    12    13   ar
    26    13    14   ar
    27    14    15   ar
    28    15    16   ar
    29    16    17   ar
    30    17    18   ar
    31     6     1   ar
    32    18     9   ar
    33    32    27    1
    34    18    13   ar
    35     7     8    1
@<TRIPOS>MOLECULE
*****
 32 35 0 0 0
SMALL
GASTEIGER

@<TRIPOS>ATOM
      1 C         142.1408  141.5058  163.7126 C.ar    1  UNL1        0.0103
      2 C         142.0272  142.4466  162.5499 C.ar    1  UNL1        0.0352
      3 C         142.6909  143.7906  162.6050 C.ar    1  UNL1        0.1384
      4 C         143.4682  144.1939  163.8228 C.ar    1  UNL1        0.0382
      5 C         143.5818  143.2530  164.9856 C.ar    1  UNL1        0.0175
      6 C         142.9182  141.9090  164.9305 C.ar    1  UNL1        0.0468
      7 N         143.0318  140.9682  166.0932 N.pl3   1  UNL1       -0.2981
      8 H         143.4189  140.0720  165.9653 H       1  UNL1        0.1536
      9 C         142.5557  141.3927  167.4508 C.ar    1  UNL1        0.1353
     10 N         143.4080  142.2906  168.2976 N.ar    1  UNL1       -0.2089
     11 C         142.9319  142.7152  169.6552 C.ar    1  UNL1        0.2000
     12 N         141.6034  142.2417  170.1660 N.ar    1  UNL1       -0.2239
     13 C         140.7510  141.3437  169.3192 C.ar    1  UNL1        0.0857
     14 C         139.4225  140.8703  169.8300 C.ar    1  UNL1        0.0192
     15 C         138.5702  139.9723  168.9832 C.ar    1  UNL1        0.0015
     16 C         139.0463  139.5478  167.6256 C.ar    1  UNL1        0.0002
     17 C         140.3748  140.0212  167.1148 C.ar    1  UNL1        0.0043
     18 C         141.2271  140.9192  167.9616 C.ar    1  UNL1        0.0494
     19 C         141.4772  140.1617  163.6574 C.3     1  UNL1        0.1005
     20 C         143.5945  138.8006  163.0138 C.3     1  UNL1        0.0899
     21 N         142.3015  138.9132  163.7657 N.3     1  UNL1       -0.2665
     22 C         141.8327  137.7773  164.6259 C.3     1  UNL1        0.0899
     23 O         142.5773  144.7314  161.4423 O.3     1  UNL1       -0.4754
     24 C         141.3738  144.6773  160.5486 C.3     1  UNL1        0.2068
     25 C         140.2149  145.5974  160.7947 C.3     1  UNL1        0.0646
     26 C         139.7496  145.8591  162.1965 C.3     1  UNL1        0.0759
     27 N         139.3074  144.7190  163.0651 N.3     1  UNL1       -0.2726
     28 C         139.7747  144.6352  164.4880 C.3     1  UNL1        0.0721
     29 C         139.3325  143.4951  165.3567 C.3     1  UNL1        0.0174
     30 C         138.4230  142.4388  164.8024 C.3     1  UNL1        0.0029
     31 C         137.9558  142.5226  163.3795 C.3     1  UNL1        0.0174
     32 C         138.3980  143.6628  162.5109 C.3     1  UNL1        0.0721
@<TRIPOS>BOND
     1    20    21    1
     2    21    22    1
     3    21    19    1
     4    19     1    1
     5     1     2   ar
     6     2     3   ar
     7     3    23    1
     8    23    24    1
     9    24    25    1
    10    25    26    1
    11    26    27    1
    12    27    28    1
    13    28    29    1
    14    29    30    1
    15    30    31    1
    16    31    32    1
    17     3     4   ar
    18     4     5   ar
    19     5     6   ar
    20     6     7    1
    21     7     9    1
    22     9    10   ar
    23    10    11   ar
    24    11    12   ar
    25    12    13   ar
    26    13    14   ar
    27    14    15   ar
    28    15    16   ar
    29    16    17   ar
    30    17    18   ar
    31     6     1   ar
    32    18     9   ar
    33    32    27    1
    34    18    13   ar
    35     7     8    1
@<TRIPOS>MOLECULE
*****
 32 35 0 0 0
SMALL
GASTEIGER

@<TRIPOS>ATOM
      1 C         138.9868  139.4741  164.3969 C.ar    1  UNL1        0.0103
      2 C         138.8754  139.0339  165.8265 C.ar    1  UNL1        0.0352
      3 C         139.1996  139.9923  166.9339 C.ar    1  UNL1        0.1384
      4 C         139.6352  141.3910  166.6117 C.ar    1  UNL1        0.0382
      5 C         139.7466  141.8313  165.1820 C.ar    1  UNL1        0.0175
      6 C         139.4224  140.8729  164.0747 C.ar    1  UNL1        0.0468
      7 N         139.5338  141.3131  162.6451 N.pl3   1  UNL1       -0.2981
      8 H         138.9785  140.8856  161.9537 H       1  UNL1        0.1536
      9 C         140.4913  142.4048  162.2690 C.ar    1  UNL1        0.1353
     10 N         139.9818  143.7900  162.0015 N.ar    1  UNL1       -0.2089
     11 C         140.9392  144.8817  161.6253 C.ar    1  UNL1        0.2000
     12 N         142.4062  144.5882  161.5167 N.ar    1  UNL1       -0.2239
     13 C         142.9157  143.2030  161.7842 C.ar    1  UNL1        0.0857
     14 C         144.3827  142.9095  161.6756 C.ar    1  UNL1        0.0192
     15 C         144.8922  141.5243  161.9431 C.ar    1  UNL1        0.0015
     16 C         143.9348  140.4326  162.3192 C.ar    1  UNL1        0.0002
     17 C         142.4678  140.7261  162.4278 C.ar    1  UNL1        0.0043
     18 C         141.9583  142.1113  162.1603 C.ar    1  UNL1        0.0494
     19 C         138.6626  138.5157  163.2895 C.3     1  UNL1        0.1005
     20 C         140.9657  137.3614  162.9530 C.3     1  UNL1        0.0899
     21 N         139.7495  138.0260  162.3792 N.3     1  UNL1       -0.2665
     22 C         139.6203  138.2010  160.8951 C.3     1  UNL1        0.0899
     23 O         139.0882  139.5520  168.3634 O.3     1  UNL1       -0.4754
     24 C         139.6620  140.4031  169.4572 C.3     1  UNL1        0.2068
     25 C         140.7236  139.8485  170.3604 C.3     1  UNL1        0.0646
     26 C         142.1128  139.6297  169.8387 C.3     1  UNL1        0.0759
     27 N         142.5243  140.2288  168.5266 N.3     1  UNL1       -0.2726
     28 C         142.8064  141.6988  168.4289 C.3     1  UNL1        0.0721
     29 C         143.2179  142.2980  167.1168 C.3     1  UNL1        0.0174
     30 C         143.3473  141.4271  165.9023 C.3     1  UNL1        0.0029
     31 C         143.0652  139.9571  166.0000 C.3     1  UNL1        0.0174
     32 C         142.6537  139.3580  167.3122 C.3     1  UNL1        0.0721
@<TRIPOS>BOND
     1    20    21    1
     2    21    22    1
     3    21    19    1
     4    19     1    1
     5     1     2   ar
     6     2     3   ar
     7     3    23    1
     8    23    24    1
     9    24    25    1
    10    25    26    1
    11    26    27    1
    12    27    28    1
    13    28    29    1
    14    29    30    1
    15    30    31    1
    16    31    32    1
    17     3     4   ar
    18     4     5   ar
    19     5     6   ar
    20     6     7    1
    21     7     9    1
    22     9    10   ar
    23    10    11   ar
    24    11    12   ar
    25    12    13   ar
    26    13    14   ar
    27    14    15   ar
    28    15    16   ar
    29    16    17   ar
    30    17    18   ar
    31     6     1   ar
    32    18     9   ar
    33    32    27    1
    34    18    13   ar
    35     7     8    1
@<TRIPOS>MOLECULE
*****
 32 35 0 0 0
SMALL
GASTEIGER

@<TRIPOS>ATOM
      1 C         137.9706  141.7178  162.6006 C.ar    1  UNL1        0.0103
      2 C         138.0442  143.0680  161.9513 C.ar    1  UNL1        0.0352
      3 C         138.2387  144.2949  162.7920 C.ar    1  UNL1        0.1384
      4 C         138.3596  144.1717  164.2820 C.ar    1  UNL1        0.0382
      5 C         138.2860  142.8215  164.9314 C.ar    1  UNL1        0.0175
      6 C         138.0915  141.5946  164.0907 C.ar    1  UNL1        0.0468
      7 N         138.0179  140.2444  164.7400 N.pl3   1  UNL1       -0.2981
      8 H         137.1786  139.9443  165.1580 H       1  UNL1        0.1536
      9 C         139.2231  139.3515  164.7524 C.ar    1  UNL1        0.1353
     10 N         139.3137  138.2005  163.7949 N.ar    1  UNL1       -0.2089
     11 C         140.5189  137.3075  163.8073 C.ar    1  UNL1        0.2000
     12 N         141.6335  137.5656  164.7773 N.ar    1  UNL1       -0.2239
     13 C         141.5430  138.7166  165.7349 C.ar    1  UNL1        0.0857
     14 C         142.6577  138.9747  166.7049 C.ar    1  UNL1        0.0192
     15 C         142.5671  140.1256  167.6625 C.ar    1  UNL1        0.0015
     16 C         141.3619  141.0186  167.6500 C.ar    1  UNL1        0.0002
     17 C         140.2473  140.7606  166.6801 C.ar    1  UNL1        0.0043
     18 C         140.3378  139.6096  165.7225 C.ar    1  UNL1        0.0494
     19 C         137.7762  140.4909  161.7599 C.3     1  UNL1        0.1005
     20 C         140.1403  140.0111  160.7952 C.3     1  UNL1        0.0899
     21 N         138.6725  140.2374  160.5842 N.3     1  UNL1       -0.2665
     22 C         138.1011  140.2103  159.1976 C.3     1  UNL1        0.0899
     23 O         138.3123  145.6450  162.1427 O.3     1  UNL1       -0.4754
     24 C         139.6366  146.1935  161.7006 C.3     1  UNL1        0.2068
     25 C         140.8805  145.3708  161.8614 C.3     1  UNL1        0.0646
     26 C         141.6508  145.4195  163.1476 C.3     1  UNL1        0.0759
     27 N         142.3973  144.2077  163.6211 N.3     1  UNL1       -0.2726
     28 C         141.8537  142.8370  163.3462 C.3     1  UNL1        0.0721
     29 C         142.6002  141.6252  163.8197 C.3     1  UNL1        0.0174
     30 C         143.8905  141.7841  164.5682 C.3     1  UNL1        0.0029
     31 C         144.4341  143.1549  164.8431 C.3     1  UNL1        0.0174
     32 C         143.6875  144.3667  164.3695 C.3     1  UNL1        0.0721
@<TRIPOS>BOND
     1    20    21    1
     2    21    22    1
     3    21    19    1
     4    19     1    1
     5     1     2   ar
     6     2     3   ar
     7     3    23    1
     8    23    24    1
     9    24    25    1
    10    25    26    1
    11    26    27    1
    12    27    28    1
    13    28    29    1
    14    29    30    1
    15    30    31    1
    16    31    32    1
    17     3     4   ar
    18     4     5   ar
    19     5     6   ar
    20     6     7    1
    21     7     9    1
    22     9    10   ar
    23    10    11   ar
    24    11    12   ar
    25    12    13   ar
    26    13    14   ar
    27    14    15   ar
    28    15    16   ar
    29    16    17   ar
    30    17    18   ar
    31     6     1   ar
    32    18     9   ar
    33    32    27    1
    34    18    13   ar
    35     7     8    1
@<TRIPOS>MOLECULE
*****
 32 35 0 0 0
SMALL
GASTEIGER

@<TRIPOS>ATOM
      1 C         140.7814  142.3161  163.4782 C.ar    1  UNL1        0.0103
      2 C         139.6795  142.0479  162.4966 C.ar    1  UNL1        0.0352
      3 C         138.3586  141.5237  162.9766 C.ar    1  UNL1        0.1384
      4 C         138.1396  141.2677  164.4382 C.ar    1  UNL1        0.0382
      5 C         139.2416  141.5359  165.4200 C.ar    1  UNL1        0.0175
      6 C         140.5625  142.0601  164.9400 C.ar    1  UNL1        0.0468
      7 N         141.6644  142.3284  165.9216 N.pl3   1  UNL1       -0.2981
      8 H         142.1790  143.1660  165.8673 H       1  UNL1        0.1536
      9 C         141.9824  141.3205  166.9861 C.ar    1  UNL1        0.1353
     10 N         142.7366  140.0722  166.6357 N.ar    1  UNL1       -0.2089
     11 C         143.0547  139.0643  167.7001 C.ar    1  UNL1        0.2000
     12 N         142.6185  139.3047  169.1150 N.ar    1  UNL1       -0.2239
     13 C         141.8642  140.5531  169.4655 C.ar    1  UNL1        0.0857
     14 C         141.4281  140.7935  170.8803 C.ar    1  UNL1        0.0192
     15 C         140.6739  142.0418  171.2308 C.ar    1  UNL1        0.0015
     16 C         140.3559  143.0497  170.1663 C.ar    1  UNL1        0.0002
     17 C         140.7920  142.8093  168.7515 C.ar    1  UNL1        0.0043
     18 C         141.5462  141.5610  168.4010 C.ar    1  UNL1        0.0494
     19 C         142.1023  142.8403  162.9982 C.3     1  UNL1        0.1005
     20 C         144.0428  144.2366  164.0156 C.3     1  UNL1        0.0899
     21 N         142.6285  144.1426  163.5247 N.3     1  UNL1       -0.2665
     22 C         141.7404  145.3509  163.5601 C.3     1  UNL1        0.0899
     23 O         137.2566  141.2554  161.9949 O.3     1  UNL1       -0.4754
     24 C         137.5033  140.3608  160.8164 C.3     1  UNL1        0.2068
     25 C         137.5947  138.8759  161.0082 C.3     1  UNL1        0.0646
     26 C         138.9306  138.1950  160.9656 C.3     1  UNL1        0.0759
     27 N         139.7051  137.9830  162.2325 N.3     1  UNL1       -0.2726
     28 C         141.2046  137.9628  162.2005 C.3     1  UNL1        0.0721
     29 C         141.9791  137.7507  163.4674 C.3     1  UNL1        0.0174
     30 C         141.2540  137.5588  164.7665 C.3     1  UNL1        0.0029
     31 C         139.7545  137.5790  164.7986 C.3     1  UNL1        0.0174
     32 C         138.9800  137.7911  163.5315 C.3     1  UNL1        0.0721
@<TRIPOS>BOND
     1    20    21    1
     2    21    22    1
     3    21    19    1
     4    19     1    1
     5     1     2   ar
     6     2     3   ar
     7     3    23    1
     8    23    24    1
     9    24    25    1
    10    25    26    1
    11    26    27    1
    12    27    28    1
    13    28    29    1
    14    29    30    1
    15    30    31    1
    16    31    32    1
    17     3     4   ar
    18     4     5   ar
    19     5     6   ar
    20     6     7    1
    21     7     9    1
    22     9    10   ar
    23    10    11   ar
    24    11    12   ar
    25    12    13   ar
    26    13    14   ar
    27    14    15   ar
    28    15    16   ar
    29    16    17   ar
    30    17    18   ar
    31     6     1   ar
    32    18     9   ar
    33    32    27    1
    34    18    13   ar
    35     7     8    1
@<TRIPOS>MOLECULE
*****
 32 35 0 0 0
SMALL
GASTEIGER

@<TRIPOS>ATOM
      1 C         140.1904  140.6156  163.8854 C.ar    1  UNL1        0.0103
      2 C         139.7527  141.5701  162.8143 C.ar    1  UNL1        0.0352
      3 C         139.5895  143.0275  163.1294 C.ar    1  UNL1        0.1384
      4 C         139.8640  143.5305  164.5156 C.ar    1  UNL1        0.0382
      5 C         140.3017  142.5760  165.5868 C.ar    1  UNL1        0.0175
      6 C         140.4649  141.1185  165.2717 C.ar    1  UNL1        0.0468
      7 N         140.9026  140.1641  166.3429 N.pl3   1  UNL1       -0.2981
      8 H         141.4360  139.3708  166.1074 H       1  UNL1        0.1536
      9 C         140.5276  140.4182  167.7728 C.ar    1  UNL1        0.1353
     10 N         139.2303  139.8934  168.3126 N.ar    1  UNL1       -0.2089
     11 C         138.8553  140.1475  169.7426 C.ar    1  UNL1        0.2000
     12 N         139.7777  140.9265  170.6328 N.ar    1  UNL1       -0.2239
     13 C         141.0751  141.4514  170.0930 C.ar    1  UNL1        0.0857
     14 C         141.9974  142.2303  170.9831 C.ar    1  UNL1        0.0192
     15 C         143.2948  142.7552  170.4433 C.ar    1  UNL1        0.0015
     16 C         143.6698  142.5010  169.0134 C.ar    1  UNL1        0.0002
     17 C         142.7474  141.7221  168.1232 C.ar    1  UNL1        0.0043
     18 C         141.4501  141.1972  168.6630 C.ar    1  UNL1        0.0494
     19 C         140.3536  139.1582  163.5704 C.3     1  UNL1        0.1005
     20 C         138.3654  137.9250  162.4407 C.3     1  UNL1        0.0899
     21 N         139.1759  138.2340  163.6644 N.3     1  UNL1       -0.2665
     22 C         138.8087  137.6189  164.9823 C.3     1  UNL1        0.0899
     23 O         139.1518  143.9819  162.0582 O.3     1  UNL1       -0.4754
     24 C         139.9460  144.1033  160.7915 C.3     1  UNL1        0.2068
     25 C         141.3636  144.5914  160.8390 C.3     1  UNL1        0.0646
     26 C         142.4795  143.6284  161.1171 C.3     1  UNL1        0.0759
     27 N         143.0858  143.5585  162.4873 N.3     1  UNL1       -0.2726
     28 C         143.3575  144.8197  163.2525 C.3     1  UNL1        0.0721
     29 C         143.9638  144.7497  164.6227 C.3     1  UNL1        0.0174
     30 C         144.2983  143.4185  165.2278 C.3     1  UNL1        0.0029
     31 C         144.0265  142.1573  164.4626 C.3     1  UNL1        0.0174
     32 C         143.4202  142.2273  163.0924 C.3     1  UNL1        0.0721
@<TRIPOS>BOND
     1    20    21    1
     2    21    22    1
     3    21    19    1
     4    19     1    1
     5     1     2   ar
     6     2     3   ar
     7     3    23    1
     8    23    24    1
     9    24    25    1
    10    25    26    1
    11    26    27    1
    12    27    28    1
    13    28    29    1
    14    29    30    1
    15    30    31    1
    16    31    32    1
    17     3     4   ar
    18     4     5   ar
    19     5     6   ar
    20     6     7    1
    21     7     9    1
    22     9    10   ar
    23    10    11   ar
    24    11    12   ar
    25    12    13   ar
    26    13    14   ar
    27    14    15   ar
    28    15    16   ar
    29    16    17   ar
    30    17    18   ar
    31     6     1   ar
    32    18     9   ar
    33    32    27    1
    34    18    13   ar
    35     7     8    1
@<TRIPOS>MOLECULE
*****
 32 35 0 0 0
SMALL
GASTEIGER

@<TRIPOS>ATOM
      1 C         141.0722  140.7832  162.2655 C.ar    1  UNL1        0.0103
      2 C         140.7642  141.8463  161.2532 C.ar    1  UNL1        0.0352
      3 C         139.3479  142.2927  161.0417 C.ar    1  UNL1        0.1384
      4 C         138.2396  141.6760  161.8425 C.ar    1  UNL1        0.0382
      5 C         138.5476  140.6129  162.8549 C.ar    1  UNL1        0.0175
      6 C         139.9639  140.1664  163.0664 C.ar    1  UNL1        0.0468
      7 N         140.2719  139.1033  164.0787 N.pl3   1  UNL1       -0.2981
      8 H         140.9156  138.3902  163.8634 H       1  UNL1        0.1536
      9 C         139.5992  139.1267  165.4192 C.ar    1  UNL1        0.1353
     10 N         138.3223  138.3685  165.6309 N.ar    1  UNL1       -0.2089
     11 C         137.6496  138.3918  166.9713 C.ar    1  UNL1        0.2000
     12 N         138.2537  139.1733  168.1002 N.ar    1  UNL1       -0.2239
     13 C         139.5306  139.9315  167.8886 C.ar    1  UNL1        0.0857
     14 C         140.1347  140.7130  169.0174 C.ar    1  UNL1        0.0192
     15 C         141.4115  141.4712  168.8057 C.ar    1  UNL1        0.0015
     16 C         142.0842  141.4479  167.4652 C.ar    1  UNL1        0.0002
     17 C         141.4801  140.6664  166.3364 C.ar    1  UNL1        0.0043
     18 C         140.2033  139.9082  166.5481 C.ar    1  UNL1        0.0494
     19 C         142.4885  140.3368  162.4771 C.3     1  UNL1        0.1005
     20 C         144.4597  141.6635  161.4262 C.3     1  UNL1        0.0899
     21 N         143.5842  141.3532  162.6041 N.3     1  UNL1       -0.2665
     22 C         143.8045  142.0594  163.9090 C.3     1  UNL1        0.0899
     23 O         139.0398  143.3558  160.0293 O.3     1  UNL1       -0.4754
     24 C         140.1234  144.2806  159.5595 C.3     1  UNL1        0.2068
     25 C         140.6519  145.3436  160.4765 C.3     1  UNL1        0.0646
     26 C         139.7896  145.8773  161.5817 C.3     1  UNL1        0.0759
     27 N         139.6557  145.1119  162.8647 N.3     1  UNL1       -0.2726
     28 C         140.8823  144.6495  163.5937 C.3     1  UNL1        0.0721
     29 C         140.7484  143.8841  164.8767 C.3     1  UNL1        0.0174
     30 C         139.3878  143.5810  165.4308 C.3     1  UNL1        0.0029
     31 C         138.1611  144.0435  164.7018 C.3     1  UNL1        0.0174
     32 C         138.2951  144.8089  163.4187 C.3     1  UNL1        0.0721
@<TRIPOS>BOND
     1    20    21    1
     2    21    22    1
     3    21    19    1
     4    19     1    1
     5     1     2   ar
     6     2     3   ar
     7     3    23    1
     8    23    24    1
     9    24    25    1
    10    25    26    1
    11    26    27    1
    12    27    28    1
    13    28    29    1
    14    29    30    1
    15    30    31    1
    16    31    32    1
    17     3     4   ar
    18     4     5   ar
    19     5     6   ar
    20     6     7    1
    21     7     9    1
    22     9    10   ar
    23    10    11   ar
    24    11    12   ar
    25    12    13   ar
    26    13    14   ar
    27    14    15   ar
    28    15    16   ar
    29    16    17   ar
    30    17    18   ar
    31     6     1   ar
    32    18     9   ar
    33    32    27    1
    34    18    13   ar
    35     7     8    1
