@<TRIPOS>MOLECULE
*****
 27 29 0 0 0
SMALL
GASTEIGER

@<TRIPOS>ATOM
      1 N         142.6281  139.9791  165.8510 N.am    1  UNL1       -0.2413
      2 C         142.9454  138.7765  165.0124 C.3     1  UNL1        0.1212
      3 C         144.1020  139.1239  164.1227 C.3     1  UNL1        0.1169
      4 N         144.4995  140.5413  164.4114 N.am    1  UNL1       -0.2606
      5 C         143.5886  141.0697  165.4795 C.2     1  UNL1        0.3111
      6 O         143.6307  142.4471  166.0721 O.2     1  UNL1       -0.2520
      7 C         140.7405  140.7832  169.2480 C.ar    1  UNL1        0.0970
      8 C         141.8274  140.6880  168.2187 C.ar    1  UNL1        0.0275
      9 C         141.5411  140.0743  166.8803 C.ar    1  UNL1        0.0562
     10 C         140.1680  139.5559  166.5711 C.ar    1  UNL1        0.0173
     11 C         139.0811  139.6511  167.6004 C.ar    1  UNL1        0.0316
     12 C         139.3673  140.2648  168.9389 C.ar    1  UNL1        0.1497
     13 F         138.2803  140.3601  169.9682 F       1  UNL1       -0.2035
     14 N         141.3130  142.0106  171.9250 N.1     1  UNL1       -0.1908
     15 C         141.0267  141.3969  170.5865 C.1     1  UNL1        0.1027
     16 C         145.6125  141.2973  163.7483 C.3     1  UNL1        0.1123
     17 C         145.3436  142.0891  162.5031 C.3     1  UNL1        0.0939
     18 N         144.1185  142.9498  162.4116 N.3     1  UNL1       -0.2712
     19 C         144.0836  144.2807  163.1026 C.3     1  UNL1        0.0724
     20 C         142.8585  145.1414  163.0111 C.3     1  UNL1        0.0258
     21 C         141.6683  144.6711  162.2286 C.3     1  UNL1        0.0979
     22 C         141.7032  143.3402  161.5376 C.3     1  UNL1        0.0258
     23 C         142.9283  142.4795  161.6291 C.3     1  UNL1        0.0724
     24 C         140.4432  145.5318  162.1372 C.3     1  UNL1        0.3976
     25 F         139.2181  146.3925  162.0457 F       1  UNL1       -0.1701
     26 F         140.7328  145.7902  160.6883 F       1  UNL1       -0.1701
     27 F         140.1535  145.2735  163.5862 F       1  UNL1       -0.1701
@<TRIPOS>BOND
     1    14    15    3
     2    15     7    1
     3     7     8   ar
     4     8     9   ar
     5     9     1    1
     6     1     2    1
     7     2     3    1
     8     3     4    1
     9     4    16    1
    10    16    17    1
    11    17    18    1
    12    18    19    1
    13    19    20    1
    14    20    21    1
    15    21    24    1
    16    24    25    1
    17    24    26    1
    18    24    27    1
    19    21    22    1
    20    22    23    1
    21     4     5   am
    22     5     6    2
    23     9    10   ar
    24    10    11   ar
    25    11    12   ar
    26    12    13    1
    27    12     7   ar
    28     5     1   am
    29    23    18    1
@<TRIPOS>MOLECULE
*****
 27 29 0 0 0
SMALL
GASTEIGER

@<TRIPOS>ATOM
      1 N         139.9705  139.6744  166.9239 N.am    1  UNL1       -0.2413
      2 C         138.6013  139.1518  167.2436 C.3     1  UNL1        0.1212
      3 C         138.1396  138.3211  166.0831 C.3     1  UNL1        0.1169
      4 N         139.2235  138.3303  165.0462 N.am    1  UNL1       -0.2606
      5 C         140.3550  139.1667  165.5658 C.2     1  UNL1        0.3111
      6 O         141.6446  139.4463  164.8526 O.2     1  UNL1       -0.2520
      7 C         141.0596  142.6753  169.2815 C.ar    1  UNL1        0.0970
      8 C         140.2221  141.7988  168.3983 C.ar    1  UNL1        0.0275
      9 C         140.8081  140.5509  167.8073 C.ar    1  UNL1        0.0562
     10 C         142.2317  140.1795  168.0995 C.ar    1  UNL1        0.0173
     11 C         143.0692  141.0560  168.9828 C.ar    1  UNL1        0.0316
     12 C         142.4832  142.3039  169.5738 C.ar    1  UNL1        0.1497
     13 F         143.3208  143.1804  170.4571 F       1  UNL1       -0.2035
     14 N         139.8876  145.1712  170.4636 N.1     1  UNL1       -0.1908
     15 C         140.4736  143.9232  169.8726 C.1     1  UNL1        0.1027
     16 C         139.1830  137.6266  163.7221 C.3     1  UNL1        0.1123
     17 C         138.7180  138.3582  162.4979 C.3     1  UNL1        0.0939
     18 N         138.7690  139.8567  162.4552 N.3     1  UNL1       -0.2712
     19 C         137.5947  140.6609  162.9290 C.3     1  UNL1        0.0724
     20 C         137.6456  142.1595  162.8863 C.3     1  UNL1        0.0258
     21 C         138.8709  142.8537  162.3697 C.3     1  UNL1        0.0979
     22 C         140.0451  142.0496  161.8959 C.3     1  UNL1        0.0258
     23 C         139.9942  140.5511  161.9387 C.3     1  UNL1        0.0724
     24 C         138.9218  144.3523  162.3270 C.3     1  UNL1        0.3976
     25 F         138.9726  145.8508  162.2843 F       1  UNL1       -0.1701
     26 F         140.3312  144.2900  161.8176 F       1  UNL1       -0.1701
     27 F         137.5122  144.4147  162.8365 F       1  UNL1       -0.1701
@<TRIPOS>BOND
     1    14    15    3
     2    15     7    1
     3     7     8   ar
     4     8     9   ar
     5     9     1    1
     6     1     2    1
     7     2     3    1
     8     3     4    1
     9     4    16    1
    10    16    17    1
    11    17    18    1
    12    18    19    1
    13    19    20    1
    14    20    21    1
    15    21    24    1
    16    24    25    1
    17    24    26    1
    18    24    27    1
    19    21    22    1
    20    22    23    1
    21     4     5   am
    22     5     6    2
    23     9    10   ar
    24    10    11   ar
    25    11    12   ar
    26    12    13    1
    27    12     7   ar
    28     5     1   am
    29    23    18    1
@<TRIPOS>MOLECULE
*****
 27 29 0 0 0
SMALL
GASTEIGER

@<TRIPOS>ATOM
      1 N         143.1587  140.8386  166.0512 N.am    1  UNL1       -0.2413
      2 C         143.0859  139.6804  165.1009 C.3     1  UNL1        0.1212
      3 C         143.8144  140.0633  163.8469 C.3     1  UNL1        0.1169
      4 N         144.3375  141.4582  164.0222 N.am    1  UNL1       -0.2606
      5 C         143.9322  141.9373  165.3846 C.2     1  UNL1        0.3111
      6 O         144.2454  143.2796  165.9764 O.2     1  UNL1       -0.2520
      7 C         141.3231  142.2022  169.2949 C.ar    1  UNL1        0.0970
      8 C         141.9192  142.1516  167.9194 C.ar    1  UNL1        0.0275
      9 C         142.5625  140.8892  167.4268 C.ar    1  UNL1        0.0562
     10 C         142.6097  139.6775  168.3097 C.ar    1  UNL1        0.0173
     11 C         142.0136  139.7282  169.6852 C.ar    1  UNL1        0.0316
     12 C         141.3703  140.9906  170.1778 C.ar    1  UNL1        0.1497
     13 F         140.7742  141.0412  171.5534 F       1  UNL1       -0.2035
     14 N         140.0366  144.7270  170.2801 N.1     1  UNL1       -0.1908
     15 C         140.6799  143.4646  169.7875 C.1     1  UNL1        0.1027
     16 C         145.1272  142.2371  163.0124 C.3     1  UNL1        0.1123
     17 C         144.4575  143.3032  162.1970 C.3     1  UNL1        0.0939
     18 N         142.9933  143.5754  162.3758 N.3     1  UNL1       -0.2712
     19 C         141.9807  142.7301  161.6617 C.3     1  UNL1        0.0724
     20 C         140.5164  143.0022  161.8404 C.3     1  UNL1        0.0258
     21 C         140.0649  144.1197  162.7334 C.3     1  UNL1        0.0979
     22 C         141.0775  144.9650  163.4476 C.3     1  UNL1        0.0258
     23 C         142.5417  144.6929  163.2688 C.3     1  UNL1        0.0724
     24 C         138.6006  144.3919  162.9122 C.3     1  UNL1        0.3976
     25 F         137.1364  144.6640  163.0909 F       1  UNL1       -0.1701
     26 F         138.9080  145.2766  164.0838 F       1  UNL1       -0.1701
     27 F         138.2931  143.5070  161.7405 F       1  UNL1       -0.1701
@<TRIPOS>BOND
     1    14    15    3
     2    15     7    1
     3     7     8   ar
     4     8     9   ar
     5     9     1    1
     6     1     2    1
     7     2     3    1
     8     3     4    1
     9     4    16    1
    10    16    17    1
    11    17    18    1
    12    18    19    1
    13    19    20    1
    14    20    21    1
    15    21    24    1
    16    24    25    1
    17    24    26    1
    18    24    27    1
    19    21    22    1
    20    22    23    1
    21     4     5   am
    22     5     6    2
    23     9    10   ar
    24    10    11   ar
    25    11    12   ar
    26    12    13    1
    27    12     7   ar
    28     5     1   am
    29    23    18    1
@<TRIPOS>MOLECULE
*****
 27 29 0 0 0
SMALL
GASTEIGER

@<TRIPOS>ATOM
      1 N         140.6407  139.3721  166.1241 N.am    1  UNL1       -0.2413
      2 C         141.7953  138.9697  165.2554 C.3     1  UNL1        0.1212
      3 C         141.2437  138.2966  164.0336 C.3     1  UNL1        0.1169
      4 N         139.7480  138.2830  164.1474 N.am    1  UNL1       -0.2606
      5 C         139.3754  138.9477  165.4393 C.2     1  UNL1        0.3111
      6 O         137.9820  139.1522  165.9559 O.2     1  UNL1       -0.2520
      7 C         142.0970  141.4798  169.1551 C.ar    1  UNL1        0.0970
      8 C         142.0029  140.7764  167.8336 C.ar    1  UNL1        0.0275
      9 C         140.7348  140.0755  167.4457 C.ar    1  UNL1        0.0562
     10 C         139.5607  140.0779  168.3793 C.ar    1  UNL1        0.0173
     11 C         139.6549  140.7812  169.7008 C.ar    1  UNL1        0.0316
     12 C         140.9230  141.4821  170.0887 C.ar    1  UNL1        0.1497
     13 F         141.0171  142.1855  171.4103 F       1  UNL1       -0.2035
     14 N         144.6333  142.8817  169.9310 N.1     1  UNL1       -0.1908
     15 C         143.3652  142.1807  169.5430 C.1     1  UNL1        0.1027
     16 C         138.7928  137.7060  163.1451 C.3     1  UNL1        0.1123
     17 C         138.1103  138.6040  162.1562 C.3     1  UNL1        0.0939
     18 N         138.3442  140.0849  162.2019 N.3     1  UNL1       -0.2712
     19 C         139.5279  140.6793  161.4979 C.3     1  UNL1        0.0724
     20 C         139.7618  142.1603  161.5437 C.3     1  UNL1        0.0258
     21 C         138.8120  143.0468  162.2935 C.3     1  UNL1        0.0979
     22 C         137.6284  142.4523  162.9975 C.3     1  UNL1        0.0258
     23 C         137.3945  140.9714  162.9517 C.3     1  UNL1        0.0724
     24 C         139.0460  144.5278  162.3392 C.3     1  UNL1        0.3976
     25 F         139.2800  146.0087  162.3850 F       1  UNL1       -0.1701
     26 F         137.8261  144.6941  163.1960 F       1  UNL1       -0.1701
     27 F         140.2660  144.3615  161.4824 F       1  UNL1       -0.1701
@<TRIPOS>BOND
     1    14    15    3
     2    15     7    1
     3     7     8   ar
     4     8     9   ar
     5     9     1    1
     6     1     2    1
     7     2     3    1
     8     3     4    1
     9     4    16    1
    10    16    17    1
    11    17    18    1
    12    18    19    1
    13    19    20    1
    14    20    21    1
    15    21    24    1
    16    24    25    1
    17    24    26    1
    18    24    27    1
    19    21    22    1
    20    22    23    1
    21     4     5   am
    22     5     6    2
    23     9    10   ar
    24    10    11   ar
    25    11    12   ar
    26    12    13    1
    27    12     7   ar
    28     5     1   am
    29    23    18    1
@<TRIPOS>MOLECULE
*****
 27 29 0 0 0
SMALL
GASTEIGER

@<TRIPOS>ATOM
      1 N         140.3889  138.7840  163.9740 N.am    1  UNL1       -0.2413
      2 C         139.6671  138.8218  162.6597 C.3     1  UNL1        0.1212
      3 C         140.6615  138.5269  161.5761 C.3     1  UNL1        0.1169
      4 N         141.9979  138.3069  162.2207 N.am    1  UNL1       -0.2606
      5 C         141.8295  138.4658  163.7027 C.2     1  UNL1        0.3111
      6 O         142.9116  138.3303  164.7326 O.2     1  UNL1       -0.2520
      7 C         139.8504  140.1625  167.6564 C.ar    1  UNL1        0.0970
      8 C         140.4617  139.9239  166.3076 C.ar    1  UNL1        0.0275
      9 C         139.7775  139.0226  165.3229 C.ar    1  UNL1        0.0562
     10 C         138.4821  138.3599  165.6871 C.ar    1  UNL1        0.0173
     11 C         137.8709  138.5985  167.0359 C.ar    1  UNL1        0.0316
     12 C         138.5550  139.4998  168.0205 C.ar    1  UNL1        0.1497
     13 F         137.9436  139.7384  169.3694 F       1  UNL1       -0.2035
     14 N         141.2187  141.9652  169.6257 N.1     1  UNL1       -0.1908
     15 C         140.5346  141.0638  168.6411 C.1     1  UNL1        0.1027
     16 C         143.2781  137.9846  161.5084 C.3     1  UNL1        0.1123
     17 C         144.2063  139.0889  161.0976 C.3     1  UNL1        0.0939
     18 N         144.1683  140.4061  161.8143 N.3     1  UNL1       -0.2712
     19 C         143.3253  141.5261  161.2808 C.3     1  UNL1        0.0724
     20 C         143.2873  142.8434  161.9975 C.3     1  UNL1        0.0258
     21 C         144.0924  143.0404  163.2477 C.3     1  UNL1        0.0979
     22 C         144.9355  141.9203  163.7812 C.3     1  UNL1        0.0258
     23 C         144.9734  140.6031  163.0645 C.3     1  UNL1        0.0724
     24 C         144.0544  144.3576  163.9643 C.3     1  UNL1        0.3976
     25 F         144.0164  145.6748  164.6810 F       1  UNL1       -0.1701
     26 F         144.7126  143.7282  165.1562 F       1  UNL1       -0.1701
     27 F         143.3962  144.9871  162.7724 F       1  UNL1       -0.1701
@<TRIPOS>BOND
     1    14    15    3
     2    15     7    1
     3     7     8   ar
     4     8     9   ar
     5     9     1    1
     6     1     2    1
     7     2     3    1
     8     3     4    1
     9     4    16    1
    10    16    17    1
    11    17    18    1
    12    18    19    1
    13    19    20    1
    14    20    21    1
    15    21    24    1
    16    24    25    1
    17    24    26    1
    18    24    27    1
    19    21    22    1
    20    22    23    1
    21     4     5   am
    22     5     6    2
    23     9    10   ar
    24    10    11   ar
    25    11    12   ar
    26    12    13    1
    27    12     7   ar
    28     5     1   am
    29    23    18    1
@<TRIPOS>MOLECULE
*****
 27 29 0 0 0
SMALL
GASTEIGER

@<TRIPOS>ATOM
      1 N         142.0010  142.5784  165.4651 N.am    1  UNL1       -0.2413
      2 C         143.0503  142.7754  164.4114 C.3     1  UNL1        0.1212
      3 C         142.5569  143.8207  163.4555 C.3     1  UNL1        0.1169
      4 N         141.2025  144.2698  163.9184 N.am    1  UNL1       -0.2606
      5 C         140.8591  143.5021  165.1603 C.2     1  UNL1        0.3111
      6 O         139.5954  143.6347  165.9576 O.2     1  UNL1       -0.2520
      7 C         141.6912  141.1010  169.1354 C.ar    1  UNL1        0.0970
      8 C         141.6124  142.0541  167.9799 C.ar    1  UNL1        0.0275
      9 C         142.0798  141.6252  166.6206 C.ar    1  UNL1        0.0562
     10 C         142.6260  140.2431  166.4169 C.ar    1  UNL1        0.0173
     11 C         142.7048  139.2900  167.5724 C.ar    1  UNL1        0.0316
     12 C         142.2374  139.7189  168.9317 C.ar    1  UNL1        0.1497
     13 F         142.3162  138.7657  170.0872 F       1  UNL1       -0.2035
     14 N         140.7564  141.9588  171.8539 N.1     1  UNL1       -0.1908
     15 C         141.2238  141.5299  170.4946 C.1     1  UNL1        0.1027
     16 C         140.3428  145.3050  163.2556 C.3     1  UNL1        0.1123
     17 C         139.2701  144.8855  162.2947 C.3     1  UNL1        0.0939
     18 N         138.8839  143.4402  162.1860 N.3     1  UNL1       -0.2712
     19 C         137.7862  142.8903  163.0479 C.3     1  UNL1        0.0724
     20 C         137.4000  141.4449  162.9392 C.3     1  UNL1        0.0258
     21 C         138.1116  140.5495  161.9687 C.3     1  UNL1        0.0979
     22 C         139.2092  141.0993  161.1068 C.3     1  UNL1        0.0258
     23 C         139.5954  142.5447  161.2155 C.3     1  UNL1        0.0724
     24 C         137.7253  139.1041  161.8600 C.3     1  UNL1        0.3976
     25 F         137.3391  137.6587  161.7514 F       1  UNL1       -0.1701
     26 F         137.1507  139.3599  160.4983 F       1  UNL1       -0.1701
     27 F         138.3000  138.8482  163.2218 F       1  UNL1       -0.1701
@<TRIPOS>BOND
     1    14    15    3
     2    15     7    1
     3     7     8   ar
     4     8     9   ar
     5     9     1    1
     6     1     2    1
     7     2     3    1
     8     3     4    1
     9     4    16    1
    10    16    17    1
    11    17    18    1
    12    18    19    1
    13    19    20    1
    14    20    21    1
    15    21    24    1
    16    24    25    1
    17    24    26    1
    18    24    27    1
    19    21    22    1
    20    22    23    1
    21     4     5   am
    22     5     6    2
    23     9    10   ar
    24    10    11   ar
    25    11    12   ar
    26    12    13    1
    27    12     7   ar
    28     5     1   am
    29    23    18    1
@<TRIPOS>MOLECULE
*****
 27 29 0 0 0
SMALL
GASTEIGER

@<TRIPOS>ATOM
      1 N         138.7273  141.5501  162.6311 N.am    1  UNL1       -0.2413
      2 C         137.8230  142.7389  162.7679 C.3     1  UNL1        0.1212
      3 C         138.1928  143.7277  161.7022 C.3     1  UNL1        0.1169
      4 N         139.3257  143.1498  160.9068 N.am    1  UNL1       -0.2606
      5 C         139.6560  141.8040  161.4809 C.2     1  UNL1        0.3111
      6 O         140.7271  140.8752  160.9908 O.2     1  UNL1       -0.2520
      7 C         138.6523  139.2285  165.8490 C.ar    1  UNL1        0.0970
      8 C         138.6730  140.4558  164.9869 C.ar    1  UNL1        0.0275
      9 C         138.7066  140.3226  163.4932 C.ar    1  UNL1        0.0562
     10 C         138.7194  138.9622  162.8616 C.ar    1  UNL1        0.0173
     11 C         138.6987  137.7349  163.7237 C.ar    1  UNL1        0.0316
     12 C         138.6651  137.8680  165.2174 C.ar    1  UNL1        0.1497
     13 F         138.6444  136.6406  166.0795 F       1  UNL1       -0.2035
     14 N         138.5852  139.4947  168.8364 N.1     1  UNL1       -0.1908
     15 C         138.6188  139.3616  167.3427 C.1     1  UNL1        0.1027
     16 C         140.0084  143.8031  159.7418 C.3     1  UNL1        0.1123
     17 C         141.2058  144.6777  159.9683 C.3     1  UNL1        0.0939
     18 N         142.0144  144.5319  161.2233 N.3     1  UNL1       -0.2712
     19 C         143.1958  143.6080  161.2512 C.3     1  UNL1        0.0724
     20 C         144.0044  143.4622  162.5062 C.3     1  UNL1        0.0258
     21 C         143.6315  144.2403  163.7332 C.3     1  UNL1        0.0979
     22 C         142.4501  145.1641  163.7053 C.3     1  UNL1        0.0258
     23 C         141.6415  145.3099  162.4504 C.3     1  UNL1        0.0724
     24 C         144.4401  144.0944  164.9882 C.3     1  UNL1        0.3976
     25 F         145.2487  143.9486  166.2432 F       1  UNL1       -0.1701
     26 F         144.4002  145.5807  165.1867 F       1  UNL1       -0.1701
     27 F         144.4801  142.6081  164.7898 F       1  UNL1       -0.1701
@<TRIPOS>BOND
     1    14    15    3
     2    15     7    1
     3     7     8   ar
     4     8     9   ar
     5     9     1    1
     6     1     2    1
     7     2     3    1
     8     3     4    1
     9     4    16    1
    10    16    17    1
    11    17    18    1
    12    18    19    1
    13    19    20    1
    14    20    21    1
    15    21    24    1
    16    24    25    1
    17    24    26    1
    18    24    27    1
    19    21    22    1
    20    22    23    1
    21     4     5   am
    22     5     6    2
    23     9    10   ar
    24    10    11   ar
    25    11    12   ar
    26    12    13    1
    27    12     7   ar
    28     5     1   am
    29    23    18    1
@<TRIPOS>MOLECULE
*****
 27 29 0 0 0
SMALL
GASTEIGER

@<TRIPOS>ATOM
      1 N         142.4791  142.5324  163.7110 N.am    1  UNL1       -0.2413
      2 C         143.9425  142.6209  164.0282 C.3     1  UNL1        0.1212
      3 C         144.3585  141.3265  164.6619 C.3     1  UNL1        0.1169
      4 N         143.1521  140.4381  164.7364 N.am    1  UNL1       -0.2606
      5 C         141.9906  141.1834  164.1487 C.2     1  UNL1        0.3111
      6 O         140.5871  140.6698  164.0211 O.2     1  UNL1       -0.2520
      7 C         141.0218  145.0151  160.9792 C.ar    1  UNL1        0.0970
      8 C         141.8512  143.9429  161.6214 C.ar    1  UNL1        0.0275
      9 C         141.6497  143.6047  163.0688 C.ar    1  UNL1        0.0562
     10 C         140.6188  144.3388  163.8741 C.ar    1  UNL1        0.0173
     11 C         139.7895  145.4110  163.2319 C.ar    1  UNL1        0.0316
     12 C         139.9910  145.7492  161.7845 C.ar    1  UNL1        0.1497
     13 F         139.1616  146.8215  161.1423 F       1  UNL1       -0.2035
     14 N         141.4248  145.6915  158.0844 N.1     1  UNL1       -0.1908
     15 C         141.2233  145.3533  159.5318 C.1     1  UNL1        0.1027
     16 C         143.1141  139.0484  165.2997 C.3     1  UNL1        0.1123
     17 C         143.0177  138.8425  166.7823 C.3     1  UNL1        0.0939
     18 N         142.2633  139.8248  167.6284 N.3     1  UNL1       -0.2712
     19 C         143.0018  140.7129  168.5854 C.3     1  UNL1        0.0724
     20 C         142.2474  141.6952  169.4316 C.3     1  UNL1        0.0258
     21 C         140.7544  141.7893  169.3207 C.3     1  UNL1        0.0979
     22 C         140.0159  140.9012  168.3637 C.3     1  UNL1        0.0258
     23 C         140.7703  139.9189  167.5176 C.3     1  UNL1        0.0724
     24 C         140.0000  142.7717  170.1668 C.3     1  UNL1        0.3976
     25 F         139.2456  143.7540  171.0130 F       1  UNL1       -0.1701
     26 F         138.8925  141.7745  170.3371 F       1  UNL1       -0.1701
     27 F         141.1075  143.7689  169.9966 F       1  UNL1       -0.1701
@<TRIPOS>BOND
     1    14    15    3
     2    15     7    1
     3     7     8   ar
     4     8     9   ar
     5     9     1    1
     6     1     2    1
     7     2     3    1
     8     3     4    1
     9     4    16    1
    10    16    17    1
    11    17    18    1
    12    18    19    1
    13    19    20    1
    14    20    21    1
    15    21    24    1
    16    24    25    1
    17    24    26    1
    18    24    27    1
    19    21    22    1
    20    22    23    1
    21     4     5   am
    22     5     6    2
    23     9    10   ar
    24    10    11   ar
    25    11    12   ar
    26    12    13    1
    27    12     7   ar
    28     5     1   am
    29    23    18    1
@<TRIPOS>MOLECULE
*****
 27 29 0 0 0
SMALL
GASTEIGER

@<TRIPOS>ATOM
      1 N         143.0174  140.5054  165.8612 N.am    1  UNL1       -0.2413
      2 C         144.0014  141.4115  165.1824 C.3     1  UNL1        0.1212
      3 C         144.1724  140.9354  163.7703 C.3     1  UNL1        0.1169
      4 N         143.2939  139.7350  163.5763 N.am    1  UNL1       -0.2606
      5 C         142.5801  139.4693  164.8685 C.2     1  UNL1        0.3111
      6 O         141.6009  138.3620  165.1233 O.2     1  UNL1       -0.2520
      7 C         141.4611  141.9997  169.1921 C.ar    1  UNL1        0.0970
      8 C         141.9263  141.8891  167.7704 C.ar    1  UNL1        0.0275
      9 C         142.5522  140.6160  167.2830 C.ar    1  UNL1        0.0562
     10 C         142.7129  139.4536  168.2172 C.ar    1  UNL1        0.0173
     11 C         142.2477  139.5643  169.6390 C.ar    1  UNL1        0.0316
     12 C         141.6219  140.8373  170.1264 C.ar    1  UNL1        0.1497
     13 F         141.1567  140.9479  171.5482 F       1  UNL1       -0.2035
     14 N         140.2094  144.5459  170.1670 N.1     1  UNL1       -0.1908
     15 C         140.8353  143.2728  169.6796 C.1     1  UNL1        0.1027
     16 C         143.1539  138.9400  162.3120 C.3     1  UNL1        0.1123
     17 C         142.0257  139.2277  161.3663 C.3     1  UNL1        0.0939
     18 N         141.0395  140.3125  161.6832 N.3     1  UNL1       -0.2712
     19 C         141.3529  141.7369  161.3325 C.3     1  UNL1        0.0724
     20 C         140.3666  142.8218  161.6495 C.3     1  UNL1        0.0258
     21 C         139.0671  142.4822  162.3172 C.3     1  UNL1        0.0979
     22 C         138.7537  141.0578  162.6679 C.3     1  UNL1        0.0258
     23 C         139.7399  139.9730  162.3509 C.3     1  UNL1        0.0724
     24 C         138.0808  143.5671  162.6341 C.3     1  UNL1        0.3976
     25 F         137.0946  144.6519  162.9511 F       1  UNL1       -0.1701
     26 F         139.0580  144.5969  162.1498 F       1  UNL1       -0.1701
     27 F         137.1036  142.5372  163.1184 F       1  UNL1       -0.1701
@<TRIPOS>BOND
     1    14    15    3
     2    15     7    1
     3     7     8   ar
     4     8     9   ar
     5     9     1    1
     6     1     2    1
     7     2     3    1
     8     3     4    1
     9     4    16    1
    10    16    17    1
    11    17    18    1
    12    18    19    1
    13    19    20    1
    14    20    21    1
    15    21    24    1
    16    24    25    1
    17    24    26    1
    18    24    27    1
    19    21    22    1
    20    22    23    1
    21     4     5   am
    22     5     6    2
    23     9    10   ar
    24    10    11   ar
    25    11    12   ar
    26    12    13    1
    27    12     7   ar
    28     5     1   am
    29    23    18    1
