@<TRIPOS>MOLECULE
*****
 34 38 0 0 0
SMALL
GASTEIGER

@<TRIPOS>ATOM
      1 N         140.4195  138.8604  156.3577 N.ar    1  UNL1       -0.2172
      2 C         141.0318  137.4980  156.2205 C.ar    1  UNL1        0.0586
      3 C         142.1531  137.3919  157.2112 C.ar    1  UNL1        0.0088
      4 C         142.2337  138.6887  157.9608 C.ar    1  UNL1        0.0161
      5 C         143.1443  139.1603  159.0554 C.ar    1  UNL1        0.0058
      6 C         142.9834  140.5395  159.6226 C.ar    1  UNL1        0.0537
      7 C         141.9120  141.4472  159.0952 C.ar    1  UNL1        0.0061
      8 C         141.0014  140.9755  158.0005 C.ar    1  UNL1        0.0191
      9 C         141.1622  139.5963  157.4333 C.ar    1  UNL1        0.0815
     10 C         142.9558  136.1281  157.3028 C.3     1  UNL1        0.1003
     11 N         142.6373  134.9704  156.4036 N.3     1  UNL1       -0.2697
     12 C         141.5160  135.0766  155.4129 C.3     1  UNL1        0.0786
     13 C         140.7133  136.3404  155.3213 C.3     1  UNL1        0.0627
     14 C         143.8941  141.0112  160.7174 C.2     1  UNL1        0.2490
     15 O         144.8452  142.1435  160.4660 O.2     1  UNL1       -0.2699
     16 N         143.8535  140.3505  162.0634 N.am    1  UNL1       -0.2761
     17 C         142.9023  139.2182  162.3147 C.3     1  UNL1        0.0937
     18 C         142.8617  138.5575  163.6608 C.3     1  UNL1        0.0216
     19 C         143.7724  139.0292  164.7555 C.3     1  UNL1        0.0034
     20 C         143.7318  138.3685  166.1016 C.3     1  UNL1        0.0001
     21 C         144.7235  140.1615  164.5042 C.3     1  UNL1        0.0216
     22 C         144.7641  140.8221  163.1581 C.3     1  UNL1        0.0937
     23 C         143.4401  133.7066  156.4953 C.3     1  UNL1        0.0628
     24 C         144.2653  133.4293  157.7168 C.3     1  UNL1        0.0481
     25 C         145.0681  132.1654  157.8084 C.3     1  UNL1        0.1435
     26 O         145.0456  131.1790  156.6786 O.3     1  UNL1       -0.3537
     27 C         144.2203  131.4564  155.4571 C.3     1  UNL1        0.1435
     28 C         143.4176  132.7202  155.3654 C.3     1  UNL1        0.0481
     29 S         139.2667  139.3935  155.5596 S.O2    1  UNL1        0.0660
     30 O         140.1844  139.6404  154.3991 O.2     1  UNL1       -0.1521
     31 O         138.3490  139.1466  156.7201 O.2     1  UNL1       -0.1521
     32 C         138.1140  139.9265  154.7614 C.3     1  UNL1        0.1751
     33 C         137.3008  137.6389  153.8365 C.3     1  UNL1        0.0019
     34 C         136.9958  139.0125  154.3562 C.3     1  UNL1        0.0276
@<TRIPOS>BOND
     1    33    34    1
     2    34    32    1
     3    32    29    1
     4    29    30    2
     5    29    31    2
     6    29     1    1
     7     1     2   ar
     8     2     3   ar
     9     3     4   ar
    10     4     5   ar
    11     5     6   ar
    12     6    14    1
    13    14    15    2
    14    14    16   am
    15    16    17    1
    16    17    18    1
    17    18    19    1
    18    19    20    1
    19    19    21    1
    20    21    22    1
    21     6     7   ar
    22     7     8   ar
    23     8     9   ar
    24     3    10    1
    25    10    11    1
    26    11    23    1
    27    23    24    1
    28    24    25    1
    29    25    26    1
    30    26    27    1
    31    27    28    1
    32    11    12    1
    33    12    13    1
    34     9     1   ar
    35    28    23    1
    36    13     2    1
    37     9     4   ar
    38    22    16    1
@<TRIPOS>MOLECULE
*****
 34 38 0 0 0
SMALL
GASTEIGER

@<TRIPOS>ATOM
      1 N         143.8866  141.6111  159.1572 N.ar    1  UNL1       -0.2172
      2 C         145.0674  141.8979  158.2778 C.ar    1  UNL1        0.0586
      3 C         144.9933  140.9849  157.0900 C.ar    1  UNL1        0.0088
      4 C         143.7667  140.1338  157.2353 C.ar    1  UNL1        0.0161
      5 C         143.1843  139.0564  156.3694 C.ar    1  UNL1        0.0058
      6 C         141.9179  138.3660  156.7810 C.ar    1  UNL1        0.0537
      7 C         141.2339  138.7530  158.0587 C.ar    1  UNL1        0.0061
      8 C         141.8163  139.8304  158.9246 C.ar    1  UNL1        0.0191
      9 C         143.0827  140.5208  158.5130 C.ar    1  UNL1        0.0815
     10 C         146.0523  141.0465  156.0295 C.3     1  UNL1        0.1003
     11 N         147.1854  142.0212  156.1569 N.3     1  UNL1       -0.2697
     12 C         147.2595  142.9342  157.3447 C.3     1  UNL1        0.0786
     13 C         146.2005  142.8726  158.4051 C.3     1  UNL1        0.0627
     14 C         141.3355  137.2885  155.9150 C.2     1  UNL1        0.2490
     15 O         140.2927  137.6301  154.8923 O.2     1  UNL1       -0.2699
     16 N         141.7958  135.8695  156.0718 N.am    1  UNL1       -0.2761
     17 C         142.8386  135.5280  157.0946 C.3     1  UNL1        0.0937
     18 C         143.2989  134.1090  157.2514 C.3     1  UNL1        0.0216
     19 C         142.7164  133.0316  156.3854 C.3     1  UNL1        0.0034
     20 C         143.1767  131.6126  156.5422 C.3     1  UNL1        0.0001
     21 C         141.6737  133.3731  155.3627 C.3     1  UNL1        0.0216
     22 C         141.2134  134.7921  155.2059 C.3     1  UNL1        0.0937
     23 C         148.2445  142.0828  155.0963 C.3     1  UNL1        0.0628
     24 C         147.9090  142.6057  153.7310 C.3     1  UNL1        0.0481
     25 C         148.9681  142.6673  152.6704 C.3     1  UNL1        0.1435
     26 O         150.3624  142.2059  152.9752 O.3     1  UNL1       -0.3537
     27 C         150.6978  141.6830  154.3406 C.3     1  UNL1        0.1435
     28 C         149.6388  141.6214  155.4011 C.3     1  UNL1        0.0481
     29 S         143.5659  142.2945  160.4534 S.O2    1  UNL1        0.0660
     30 O         144.0777  141.1035  161.2081 O.2     1  UNL1       -0.1521
     31 O         143.0541  143.4855  159.6989 O.2     1  UNL1       -0.1521
     32 C         143.2452  142.9779  161.7497 C.3     1  UNL1        0.1751
     33 C         143.8170  144.8036  163.5074 C.3     1  UNL1        0.0019
     34 C         144.2290  143.9333  162.3574 C.3     1  UNL1        0.0276
@<TRIPOS>BOND
     1    33    34    1
     2    34    32    1
     3    32    29    1
     4    29    30    2
     5    29    31    2
     6    29     1    1
     7     1     2   ar
     8     2     3   ar
     9     3     4   ar
    10     4     5   ar
    11     5     6   ar
    12     6    14    1
    13    14    15    2
    14    14    16   am
    15    16    17    1
    16    17    18    1
    17    18    19    1
    18    19    20    1
    19    19    21    1
    20    21    22    1
    21     6     7   ar
    22     7     8   ar
    23     8     9   ar
    24     3    10    1
    25    10    11    1
    26    11    23    1
    27    23    24    1
    28    24    25    1
    29    25    26    1
    30    26    27    1
    31    27    28    1
    32    11    12    1
    33    12    13    1
    34     9     1   ar
    35    28    23    1
    36    13     2    1
    37     9     4   ar
    38    22    16    1
@<TRIPOS>MOLECULE
*****
 34 38 0 0 0
SMALL
GASTEIGER

@<TRIPOS>ATOM
      1 N         142.2278  138.5684  157.5019 N.ar    1  UNL1       -0.2172
      2 C         141.6480  139.8526  156.9874 C.ar    1  UNL1        0.0586
      3 C         141.4239  140.7621  158.1589 C.ar    1  UNL1        0.0088
      4 C         141.8651  140.0401  159.3974 C.ar    1  UNL1        0.0161
      5 C         141.8787  140.4421  160.8425 C.ar    1  UNL1        0.0058
      6 C         142.3890  139.4883  161.8815 C.ar    1  UNL1        0.0537
      7 C         142.8859  138.1324  161.4755 C.ar    1  UNL1        0.0061
      8 C         142.8723  137.7305  160.0304 C.ar    1  UNL1        0.0191
      9 C         142.3619  138.6843  158.9914 C.ar    1  UNL1        0.0815
     10 C         140.8470  142.1303  157.9464 C.3     1  UNL1        0.1003
     11 N         140.4942  142.5890  156.5625 N.3     1  UNL1       -0.2697
     12 C         140.7183  141.6794  155.3910 C.3     1  UNL1        0.0786
     13 C         141.2952  140.3112  155.6034 C.3     1  UNL1        0.0627
     14 C         142.4026  139.8902  163.3266 C.2     1  UNL1        0.2490
     15 O         143.5826  140.6255  163.8895 O.2     1  UNL1       -0.2699
     16 N         141.2361  139.5569  164.2088 N.am    1  UNL1       -0.2761
     17 C         140.0561  138.8216  163.6458 C.3     1  UNL1        0.0937
     18 C         138.8896  138.4882  164.5279 C.3     1  UNL1        0.0216
     19 C         138.9032  138.8902  165.9731 C.3     1  UNL1        0.0034
     20 C         137.7367  138.5569  166.8552 C.3     1  UNL1        0.0001
     21 C         140.0832  139.6255  166.5360 C.3     1  UNL1        0.0216
     22 C         141.2497  139.9588  165.6538 C.3     1  UNL1        0.0937
     23 C         139.9172  143.9573  156.3501 C.3     1  UNL1        0.0628
     24 C         138.8573  144.1711  155.3105 C.3     1  UNL1        0.0481
     25 C         138.2803  145.5393  155.0980 C.3     1  UNL1        0.1435
     26 O         138.7633  146.6937  155.9252 O.3     1  UNL1       -0.3537
     27 C         139.8233  146.4798  156.9649 C.3     1  UNL1        0.1435
     28 C         140.4002  145.1116  157.1773 C.3     1  UNL1        0.0481
     29 S         142.6068  137.3774  156.6726 S.O2    1  UNL1        0.0660
     30 O         141.2199  136.8275  156.8284 O.2     1  UNL1       -0.1521
     31 O         143.9936  137.9272  156.5168 O.2     1  UNL1       -0.1521
     32 C         142.9858  136.1863  155.8433 C.3     1  UNL1        0.1751
     33 C         143.5088  134.1835  157.4134 C.3     1  UNL1        0.0019
     34 C         142.6744  134.8026  156.3316 C.3     1  UNL1        0.0276
@<TRIPOS>BOND
     1    33    34    1
     2    34    32    1
     3    32    29    1
     4    29    30    2
     5    29    31    2
     6    29     1    1
     7     1     2   ar
     8     2     3   ar
     9     3     4   ar
    10     4     5   ar
    11     5     6   ar
    12     6    14    1
    13    14    15    2
    14    14    16   am
    15    16    17    1
    16    17    18    1
    17    18    19    1
    18    19    20    1
    19    19    21    1
    20    21    22    1
    21     6     7   ar
    22     7     8   ar
    23     8     9   ar
    24     3    10    1
    25    10    11    1
    26    11    23    1
    27    23    24    1
    28    24    25    1
    29    25    26    1
    30    26    27    1
    31    27    28    1
    32    11    12    1
    33    12    13    1
    34     9     1   ar
    35    28    23    1
    36    13     2    1
    37     9     4   ar
    38    22    16    1
@<TRIPOS>MOLECULE
*****
 34 38 0 0 0
SMALL
GASTEIGER

@<TRIPOS>ATOM
      1 N         141.2980  143.6998  158.7129 N.ar    1  UNL1       -0.2172
      2 C         141.7038  142.4335  158.0187 C.ar    1  UNL1        0.0586
      3 C         142.0563  141.4219  159.0687 C.ar    1  UNL1        0.0088
      4 C         141.8683  142.0630  160.4117 C.ar    1  UNL1        0.0161
      5 C         142.0633  141.5466  161.8064 C.ar    1  UNL1        0.0058
      6 C         141.7897  142.4382  162.9813 C.ar    1  UNL1        0.0537
      7 C         141.3211  143.8460  162.7614 C.ar    1  UNL1        0.0061
      8 C         141.1260  144.3623  161.3666 C.ar    1  UNL1        0.0191
      9 C         141.3996  143.4708  160.1918 C.ar    1  UNL1        0.0815
     10 C         142.5029  140.0477  158.6661 C.3     1  UNL1        0.1003
     11 N         142.5970  139.6851  157.2136 N.3     1  UNL1       -0.2697
     12 C         142.2445  140.6967  156.1637 C.3     1  UNL1        0.0786
     13 C         141.7979  142.0709  156.5662 C.3     1  UNL1        0.0627
     14 C         141.9848  141.9219  164.3761 C.2     1  UNL1        0.2490
     15 O         143.2521  142.2267  165.1183 O.2     1  UNL1       -0.2699
     16 N         140.9124  141.1007  165.0286 N.am    1  UNL1       -0.2761
     17 C         139.6451  140.7958  164.2863 C.3     1  UNL1        0.0937
     18 C         138.5727  139.9747  164.9389 C.3     1  UNL1        0.0216
     19 C         138.7678  139.4584  166.3337 C.3     1  UNL1        0.0034
     20 C         137.6955  138.6372  166.9863 C.3     1  UNL1        0.0001
     21 C         140.0351  139.7632  167.0759 C.3     1  UNL1        0.0216
     22 C         141.1074  140.5844  166.4234 C.3     1  UNL1        0.0937
     23 C         143.0436  138.3108  156.8111 C.3     1  UNL1        0.0628
     24 C         142.5638  137.1125  157.5754 C.3     1  UNL1        0.0481
     25 C         143.0105  135.7382  157.1728 C.3     1  UNL1        0.1435
     26 O         143.9368  135.5623  156.0062 O.3     1  UNL1       -0.3537
     27 C         144.4165  136.7606  155.2420 C.3     1  UNL1        0.1435
     28 C         143.9699  138.1349  155.6445 C.3     1  UNL1        0.0481
     29 S         140.8663  144.9718  158.0453 S.O2    1  UNL1        0.0660
     30 O         139.4985  144.3947  157.8303 O.2     1  UNL1       -0.1521
     31 O         142.2339  145.5488  158.2602 O.2     1  UNL1       -0.1521
     32 C         140.4344  146.2438  157.3777 C.3     1  UNL1        0.1751
     33 C         140.3916  146.7129  154.8228 C.3     1  UNL1        0.0019
     34 C         139.7202  146.1941  156.0596 C.3     1  UNL1        0.0276
@<TRIPOS>BOND
     1    33    34    1
     2    34    32    1
     3    32    29    1
     4    29    30    2
     5    29    31    2
     6    29     1    1
     7     1     2   ar
     8     2     3   ar
     9     3     4   ar
    10     4     5   ar
    11     5     6   ar
    12     6    14    1
    13    14    15    2
    14    14    16   am
    15    16    17    1
    16    17    18    1
    17    18    19    1
    18    19    20    1
    19    19    21    1
    20    21    22    1
    21     6     7   ar
    22     7     8   ar
    23     8     9   ar
    24     3    10    1
    25    10    11    1
    26    11    23    1
    27    23    24    1
    28    24    25    1
    29    25    26    1
    30    26    27    1
    31    27    28    1
    32    11    12    1
    33    12    13    1
    34     9     1   ar
    35    28    23    1
    36    13     2    1
    37     9     4   ar
    38    22    16    1
@<TRIPOS>MOLECULE
*****
 34 38 0 0 0
SMALL
GASTEIGER

@<TRIPOS>ATOM
      1 N         143.5037  139.7898  156.8638 N.ar    1  UNL1       -0.2172
      2 C         142.7311  139.9362  158.1412 C.ar    1  UNL1        0.0586
      3 C         142.0507  138.6296  158.4237 C.ar    1  UNL1        0.0088
      4 C         142.4028  137.6756  157.3209 C.ar    1  UNL1        0.0161
      5 C         142.0216  136.2468  157.0701 C.ar    1  UNL1        0.0058
      6 C         142.5385  135.5349  155.8552 C.ar    1  UNL1        0.0537
      7 C         143.4366  136.2519  154.8911 C.ar    1  UNL1        0.0061
      8 C         143.8177  137.6808  155.1420 C.ar    1  UNL1        0.0191
      9 C         143.3008  138.3927  156.3569 C.ar    1  UNL1        0.0815
     10 C         141.1985  138.4773  159.6486 C.3     1  UNL1        0.1003
     11 N         141.0266  139.6316  160.5910 N.3     1  UNL1       -0.2697
     12 C         141.7070  140.9382  160.3085 C.3     1  UNL1        0.0786
     13 C         142.5593  141.0905  159.0836 C.3     1  UNL1        0.0627
     14 C         142.1574  134.1059  155.6043 C.2     1  UNL1        0.2490
     15 O         141.0390  133.7830  154.6584 O.2     1  UNL1       -0.2699
     16 N         142.8948  133.0000  156.2994 N.am    1  UNL1       -0.2761
     17 C         144.0133  133.3230  157.2453 C.3     1  UNL1        0.0937
     18 C         144.7507  132.2170  157.9404 C.3     1  UNL1        0.0216
     19 C         144.3696  130.7880  157.6895 C.3     1  UNL1        0.0034
     20 C         145.1070  129.6820  158.3845 C.3     1  UNL1        0.0001
     21 C         143.2512  130.4651  156.7436 C.3     1  UNL1        0.0216
     22 C         142.5138  131.5710  156.0485 C.3     1  UNL1        0.0937
     23 C         140.1743  139.4792  161.8160 C.3     1  UNL1        0.0628
     24 C         139.6884  140.6953  162.5475 C.3     1  UNL1        0.0481
     25 C         138.8361  140.5429  163.7725 C.3     1  UNL1        0.1435
     26 O         138.4698  139.1745  164.2658 O.3     1  UNL1       -0.3537
     27 C         138.9557  137.9585  163.5342 C.3     1  UNL1        0.1435
     28 C         139.8080  138.1108  162.3093 C.3     1  UNL1        0.0481
     29 S         144.3335  140.8536  156.2084 S.O2    1  UNL1        0.0660
     30 O         145.4891  140.4996  157.0969 O.2     1  UNL1       -0.1521
     31 O         143.1781  141.2076  155.3200 O.2     1  UNL1       -0.1521
     32 C         145.1635  141.9175  155.5531 C.3     1  UNL1        0.1751
     33 C         147.7283  142.2752  155.3442 C.3     1  UNL1        0.0019
     34 C         146.4715  142.3293  156.1611 C.3     1  UNL1        0.0276
@<TRIPOS>BOND
     1    33    34    1
     2    34    32    1
     3    32    29    1
     4    29    30    2
     5    29    31    2
     6    29     1    1
     7     1     2   ar
     8     2     3   ar
     9     3     4   ar
    10     4     5   ar
    11     5     6   ar
    12     6    14    1
    13    14    15    2
    14    14    16   am
    15    16    17    1
    16    17    18    1
    17    18    19    1
    18    19    20    1
    19    19    21    1
    20    21    22    1
    21     6     7   ar
    22     7     8   ar
    23     8     9   ar
    24     3    10    1
    25    10    11    1
    26    11    23    1
    27    23    24    1
    28    24    25    1
    29    25    26    1
    30    26    27    1
    31    27    28    1
    32    11    12    1
    33    12    13    1
    34     9     1   ar
    35    28    23    1
    36    13     2    1
    37     9     4   ar
    38    22    16    1
@<TRIPOS>MOLECULE
*****
 34 38 0 0 0
SMALL
GASTEIGER

@<TRIPOS>ATOM
      1 N         143.6321  139.8851  156.8367 N.ar    1  UNL1       -0.2172
      2 C         143.5164  138.4339  156.4753 C.ar    1  UNL1        0.0586
      3 C         142.6929  137.7576  157.5309 C.ar    1  UNL1        0.0088
      4 C         142.2996  138.7908  158.5448 C.ar    1  UNL1        0.0161
      5 C         141.4880  138.7041  159.8032 C.ar    1  UNL1        0.0058
      6 C         141.2568  139.9324  160.6326 C.ar    1  UNL1        0.0537
      7 C         141.8372  141.2473  160.2035 C.ar    1  UNL1        0.0061
      8 C         142.6489  141.3340  158.9451 C.ar    1  UNL1        0.0191
      9 C         142.8801  140.1057  158.1157 C.ar    1  UNL1        0.0815
     10 C         142.4075  136.2883  157.4326 C.3     1  UNL1        0.1003
     11 N         142.9457  135.4953  156.2786 N.3     1  UNL1       -0.2697
     12 C         143.7691  136.1717  155.2230 C.3     1  UNL1        0.0786
     13 C         144.0545  137.6410  155.3213 C.3     1  UNL1        0.0627
     14 C         140.4451  139.8458  161.8911 C.2     1  UNL1        0.2490
     15 O         138.9579  140.0339  161.8388 O.2     1  UNL1       -0.2699
     16 N         141.1207  139.5711  163.2018 N.am    1  UNL1       -0.2761
     17 C         142.6080  139.3830  163.2541 C.3     1  UNL1        0.0937
     18 C         143.2837  139.1082  164.5648 C.3     1  UNL1        0.0216
     19 C         142.4720  139.0216  165.8233 C.3     1  UNL1        0.0034
     20 C         143.1476  138.7469  167.1341 C.3     1  UNL1        0.0001
     21 C         140.9848  139.2097  165.7710 C.3     1  UNL1        0.0216
     22 C         140.3092  139.4845  164.4603 C.3     1  UNL1        0.0937
     23 C         142.6603  134.0259  156.1804 C.3     1  UNL1        0.0628
     24 C         141.6274  133.5256  155.2145 C.3     1  UNL1        0.0481
     25 C         141.3420  132.0562  155.1162 C.3     1  UNL1        0.1435
     26 O         142.0894  131.0874  155.9837 O.3     1  UNL1       -0.3537
     27 C         143.1223  131.5878  156.9496 C.3     1  UNL1        0.1435
     28 C         143.4077  133.0571  157.0479 C.3     1  UNL1        0.0481
     29 S         144.3701  140.9320  156.0561 S.O2    1  UNL1        0.0660
     30 O         143.1198  141.2398  155.2867 O.2     1  UNL1       -0.1521
     31 O         145.6204  140.6243  156.8255 O.2     1  UNL1       -0.1521
     32 C         145.1082  141.9790  155.2755 C.3     1  UNL1        0.1751
     33 C         147.5106  142.7368  154.6402 C.3     1  UNL1        0.0019
     34 C         146.4941  142.3815  155.6843 C.3     1  UNL1        0.0276
@<TRIPOS>BOND
     1    33    34    1
     2    34    32    1
     3    32    29    1
     4    29    30    2
     5    29    31    2
     6    29     1    1
     7     1     2   ar
     8     2     3   ar
     9     3     4   ar
    10     4     5   ar
    11     5     6   ar
    12     6    14    1
    13    14    15    2
    14    14    16   am
    15    16    17    1
    16    17    18    1
    17    18    19    1
    18    19    20    1
    19    19    21    1
    20    21    22    1
    21     6     7   ar
    22     7     8   ar
    23     8     9   ar
    24     3    10    1
    25    10    11    1
    26    11    23    1
    27    23    24    1
    28    24    25    1
    29    25    26    1
    30    26    27    1
    31    27    28    1
    32    11    12    1
    33    12    13    1
    34     9     1   ar
    35    28    23    1
    36    13     2    1
    37     9     4   ar
    38    22    16    1
@<TRIPOS>MOLECULE
*****
 34 38 0 0 0
SMALL
GASTEIGER

@<TRIPOS>ATOM
      1 N         142.3307  139.0776  157.6847 N.ar    1  UNL1       -0.2172
      2 C         141.8525  140.3460  157.0425 C.ar    1  UNL1        0.0586
      3 C         142.1537  141.4805  157.9764 C.ar    1  UNL1        0.0088
      4 C         142.8180  140.9133  159.1958 C.ar    1  UNL1        0.0161
      5 C         143.3374  141.5572  160.4470 C.ar    1  UNL1        0.0058
      6 C         143.9663  140.7160  161.5179 C.ar    1  UNL1        0.0537
      7 C         144.0757  139.2309  161.3376 C.ar    1  UNL1        0.0061
      8 C         143.5562  138.5870  160.0865 C.ar    1  UNL1        0.0191
      9 C         142.9274  139.4282  159.0155 C.ar    1  UNL1        0.0815
     10 C         141.7841  142.8836  157.5958 C.3     1  UNL1        0.1003
     11 N         141.1133  143.1521  156.2812 N.3     1  UNL1       -0.2697
     12 C         140.8121  142.0176  155.3473 C.3     1  UNL1        0.0786
     13 C         141.1817  140.6146  155.7280 C.3     1  UNL1        0.0627
     14 C         144.4857  141.3599  162.7692 C.2     1  UNL1        0.2490
     15 O         145.9354  141.7302  162.8759 O.2     1  UNL1       -0.2699
     16 N         143.5555  141.6335  163.9137 N.am    1  UNL1       -0.2761
     17 C         142.1058  141.2632  163.8069 C.3     1  UNL1        0.0937
     18 C         141.1756  141.5368  164.9514 C.3     1  UNL1        0.0216
     19 C         141.6951  142.1807  166.2026 C.3     1  UNL1        0.0034
     20 C         140.7649  142.4543  167.3471 C.3     1  UNL1        0.0001
     21 C         143.1447  142.5510  166.3094 C.3     1  UNL1        0.0216
     22 C         144.0749  142.2774  165.1649 C.3     1  UNL1        0.0937
     23 C         140.7437  144.5552  155.9006 C.3     1  UNL1        0.0628
     24 C         141.1279  145.0928  154.5540 C.3     1  UNL1        0.0481
     25 C         140.7583  146.4959  154.1734 C.3     1  UNL1        0.1435
     26 O         140.0046  147.3612  155.1393 O.3     1  UNL1       -0.3537
     27 C         139.6203  146.8235  156.4859 C.3     1  UNL1        0.1435
     28 C         139.9899  145.4205  156.8666 C.3     1  UNL1        0.0481
     29 S         142.2299  137.7004  157.0990 S.O2    1  UNL1        0.0660
     30 O         143.6665  137.7759  156.6743 O.2     1  UNL1       -0.1521
     31 O         140.7933  137.6249  157.5237 O.2     1  UNL1       -0.1521
     32 C         142.1291  136.3231  156.5133 C.3     1  UNL1        0.1751
     33 C         143.5217  134.2422  157.2062 C.3     1  UNL1        0.0019
     34 C         143.3594  135.4770  156.3703 C.3     1  UNL1        0.0276
@<TRIPOS>BOND
     1    33    34    1
     2    34    32    1
     3    32    29    1
     4    29    30    2
     5    29    31    2
     6    29     1    1
     7     1     2   ar
     8     2     3   ar
     9     3     4   ar
    10     4     5   ar
    11     5     6   ar
    12     6    14    1
    13    14    15    2
    14    14    16   am
    15    16    17    1
    16    17    18    1
    17    18    19    1
    18    19    20    1
    19    19    21    1
    20    21    22    1
    21     6     7   ar
    22     7     8   ar
    23     8     9   ar
    24     3    10    1
    25    10    11    1
    26    11    23    1
    27    23    24    1
    28    24    25    1
    29    25    26    1
    30    26    27    1
    31    27    28    1
    32    11    12    1
    33    12    13    1
    34     9     1   ar
    35    28    23    1
    36    13     2    1
    37     9     4   ar
    38    22    16    1
@<TRIPOS>MOLECULE
*****
 34 38 0 0 0
SMALL
GASTEIGER

@<TRIPOS>ATOM
      1 N         141.2020  144.1968  157.6372 N.ar    1  UNL1       -0.2172
      2 C         141.4811  144.1413  159.1099 C.ar    1  UNL1        0.0586
      3 C         142.3333  142.9357  159.3750 C.ar    1  UNL1        0.0088
      4 C         142.5809  142.2461  158.0661 C.ar    1  UNL1        0.0161
      5 C         143.3527  141.0093  157.7135 C.ar    1  UNL1        0.0058
      6 C         143.4253  140.5518  156.2868 C.ar    1  UNL1        0.0537
      7 C         142.7261  141.3312  155.2128 C.ar    1  UNL1        0.0061
      8 C         141.9543  142.5681  155.5654 C.ar    1  UNL1        0.0191
      9 C         141.8817  143.0256  156.9920 C.ar    1  UNL1        0.0815
     10 C         142.7738  142.6216  160.7740 C.3     1  UNL1        0.1003
     11 N         142.3621  143.5130  161.9079 N.3     1  UNL1       -0.2697
     12 C         141.5098  144.7186  161.6429 C.3     1  UNL1        0.0786
     13 C         141.0694  145.0327  160.2439 C.3     1  UNL1        0.0627
     14 C         144.1971  139.3148  155.9341 C.2     1  UNL1        0.2490
     15 O         145.6803  139.3907  155.7240 O.2     1  UNL1       -0.2699
     16 N         143.4856  138.0020  155.7916 N.am    1  UNL1       -0.2761
     17 C         142.0023  137.9262  156.0017 C.3     1  UNL1        0.0937
     18 C         141.2908  136.6134  155.8591 C.3     1  UNL1        0.0216
     19 C         142.0626  135.3764  155.5064 C.3     1  UNL1        0.0034
     20 C         141.3511  134.0636  155.3639 C.3     1  UNL1        0.0001
     21 C         143.5458  135.4523  155.2964 C.3     1  UNL1        0.0216
     22 C         144.2573  136.7651  155.4389 C.3     1  UNL1        0.0937
     23 C         142.8026  143.1988  163.3070 C.3     1  UNL1        0.0628
     24 C         143.9984  143.8916  163.8901 C.3     1  UNL1        0.0481
     25 C         144.4389  143.5774  165.2892 C.3     1  UNL1        0.1435
     26 O         143.6836  142.5705  166.1050 O.3     1  UNL1       -0.3537
     27 C         142.4878  141.8778  165.5219 C.3     1  UNL1        0.1435
     28 C         142.0472  142.1919  164.1229 C.3     1  UNL1        0.0481
     29 S         140.3864  145.2404  156.9331 S.O2    1  UNL1        0.0660
     30 O         141.5750  146.1552  156.9121 O.2     1  UNL1       -0.1521
     31 O         139.1978  144.3257  156.9541 O.2     1  UNL1       -0.1521
     32 C         139.5708  146.2841  156.2290 C.3     1  UNL1        0.1751
     33 C         139.8628  148.1508  154.4459 C.3     1  UNL1        0.0019
     34 C         139.9319  146.7039  154.8350 C.3     1  UNL1        0.0276
@<TRIPOS>BOND
     1    33    34    1
     2    34    32    1
     3    32    29    1
     4    29    30    2
     5    29    31    2
     6    29     1    1
     7     1     2   ar
     8     2     3   ar
     9     3     4   ar
    10     4     5   ar
    11     5     6   ar
    12     6    14    1
    13    14    15    2
    14    14    16   am
    15    16    17    1
    16    17    18    1
    17    18    19    1
    18    19    20    1
    19    19    21    1
    20    21    22    1
    21     6     7   ar
    22     7     8   ar
    23     8     9   ar
    24     3    10    1
    25    10    11    1
    26    11    23    1
    27    23    24    1
    28    24    25    1
    29    25    26    1
    30    26    27    1
    31    27    28    1
    32    11    12    1
    33    12    13    1
    34     9     1   ar
    35    28    23    1
    36    13     2    1
    37     9     4   ar
    38    22    16    1
@<TRIPOS>MOLECULE
*****
 34 38 0 0 0
SMALL
GASTEIGER

@<TRIPOS>ATOM
      1 N         139.7698  142.2504  157.5210 N.ar    1  UNL1       -0.2172
      2 C         140.1746  140.8994  157.0103 C.ar    1  UNL1        0.0586
      3 C         140.7495  140.1232  158.1579 C.ar    1  UNL1        0.0088
      4 C         140.7001  140.9946  159.3779 C.ar    1  UNL1        0.0161
      5 C         141.1282  140.7607  160.7963 C.ar    1  UNL1        0.0058
      6 C         140.9508  141.8415  161.8211 C.ar    1  UNL1        0.0537
      7 C         140.3453  143.1562  161.4275 C.ar    1  UNL1        0.0061
      8 C         139.9172  143.3901  160.0090 C.ar    1  UNL1        0.0191
      9 C         140.0946  142.3093  158.9842 C.ar    1  UNL1        0.0815
     10 C         141.2438  138.7233  157.9437 C.3     1  UNL1        0.1003
     11 N         141.1631  138.0995  156.5819 N.3     1  UNL1       -0.2697
     12 C         140.5882  138.8757  155.4343 C.3     1  UNL1        0.0786
     13 C         140.0939  140.2756  155.6485 C.3     1  UNL1        0.0627
     14 C         141.3789  141.6077  163.2396 C.2     1  UNL1        0.2490
     15 O         142.7121  142.1067  163.7126 O.2     1  UNL1       -0.2699
     16 N         140.4739  140.8749  164.1851 N.am    1  UNL1       -0.2761
     17 C         139.1407  140.3759  163.7120 C.3     1  UNL1        0.0937
     18 C         138.2356  139.6431  164.6574 C.3     1  UNL1        0.0216
     19 C         138.6637  139.4093  166.0759 C.3     1  UNL1        0.0034
     20 C         137.7587  138.6765  167.0214 C.3     1  UNL1        0.0001
     21 C         139.9968  139.9083  166.5489 C.3     1  UNL1        0.0216
     22 C         140.9019  140.6411  165.6035 C.3     1  UNL1        0.0937
     23 C         141.6575  136.6995  156.3678 C.3     1  UNL1        0.0628
     24 C         142.8618  136.2071  157.1142 C.3     1  UNL1        0.0481
     25 C         143.3561  134.8071  156.9001 C.3     1  UNL1        0.1435
     26 O         142.6461  133.8997  155.9396 O.3     1  UNL1       -0.3537
     27 C         141.4418  134.3922  155.1932 C.3     1  UNL1        0.1435
     28 C         140.9475  135.7922  155.4073 C.3     1  UNL1        0.0481
     29 S         139.1493  143.3497  156.7108 S.O2    1  UNL1        0.0660
     30 O         140.5074  143.9393  156.4704 O.2     1  UNL1       -0.1521
     31 O         137.7912  142.7602  156.9511 O.2     1  UNL1       -0.1521
     32 C         138.5287  144.4490  155.9005 C.3     1  UNL1        0.1751
     33 C         138.8511  146.9967  155.5069 C.3     1  UNL1        0.0019
     34 C         139.3711  145.5926  155.4183 C.3     1  UNL1        0.0276
@<TRIPOS>BOND
     1    33    34    1
     2    34    32    1
     3    32    29    1
     4    29    30    2
     5    29    31    2
     6    29     1    1
     7     1     2   ar
     8     2     3   ar
     9     3     4   ar
    10     4     5   ar
    11     5     6   ar
    12     6    14    1
    13    14    15    2
    14    14    16   am
    15    16    17    1
    16    17    18    1
    17    18    19    1
    18    19    20    1
    19    19    21    1
    20    21    22    1
    21     6     7   ar
    22     7     8   ar
    23     8     9   ar
    24     3    10    1
    25    10    11    1
    26    11    23    1
    27    23    24    1
    28    24    25    1
    29    25    26    1
    30    26    27    1
    31    27    28    1
    32    11    12    1
    33    12    13    1
    34     9     1   ar
    35    28    23    1
    36    13     2    1
    37     9     4   ar
    38    22    16    1
