@<TRIPOS>MOLECULE
*****
 16 17 0 0 0
SMALL
GASTEIGER

@<TRIPOS>ATOM
      1 C         140.3729  144.1946  169.9903 C.3     1  UNL1        0.0319
      2 C         141.1233  142.9880  169.5098 C.ar    1  UNL1       -0.0116
      3 C         140.4826  142.0455  168.5344 C.ar    1  UNL1       -0.0076
      4 C         141.2331  140.8389  168.0539 C.ar    1  UNL1       -0.0211
      5 C         142.6241  140.5746  168.5489 C.ar    1  UNL1       -0.0034
      6 C         143.2649  141.5170  169.5243 C.ar    1  UNL1        0.0108
      7 C         142.5144  142.7237  170.0048 C.ar    1  UNL1        0.0537
      8 CL        143.1550  143.6660  170.9802 Cl      1  UNL1       -0.0826
      9 C         140.5924  139.8965  167.0785 C.3     1  UNL1        0.0426
     10 C         139.1415  139.5998  167.3174 C.3     1  UNL1        0.0315
     11 C         138.2272  138.7086  166.5299 C.2     1  UNL1       -0.0289
     12 C         138.5380  137.8942  165.3093 C.2     1  UNL1       -0.0134
     13 C         139.8398  137.7697  164.5744 C.3     1  UNL1        0.0986
     14 N         141.1523  138.4289  164.8789 N.3     1  UNL1       -0.2674
     15 C         142.2789  138.0978  163.9456 C.3     1  UNL1        0.0899
     16 C         141.4872  139.3754  165.9934 C.3     1  UNL1        0.0771
@<TRIPOS>BOND
     1     1     2    1
     2     2     3   ar
     3     3     4   ar
     4     4     9    1
     5     9    10    1
     6    10    11    1
     7    11    12    2
     8    12    13    1
     9    13    14    1
    10    14    15    1
    11    14    16    1
    12     4     5   ar
    13     5     6   ar
    14     6     7   ar
    15     7     8    1
    16     7     2   ar
    17    16     9    1
@<TRIPOS>MOLECULE
*****
 16 17 0 0 0
SMALL
GASTEIGER

@<TRIPOS>ATOM
      1 C         141.0094  142.6830  170.4727 C.3     1  UNL1        0.0319
      2 C         141.4461  142.5966  169.0403 C.ar    1  UNL1       -0.0116
      3 C         140.4356  142.7249  167.9391 C.ar    1  UNL1       -0.0076
      4 C         140.8723  142.6385  166.5067 C.ar    1  UNL1       -0.0211
      5 C         142.3194  142.4236  166.1755 C.ar    1  UNL1       -0.0034
      6 C         143.3299  142.2953  167.2766 C.ar    1  UNL1        0.0108
      7 C         142.8932  142.3818  168.7091 C.ar    1  UNL1        0.0537
      8 CL        143.9036  142.2534  169.8102 Cl      1  UNL1       -0.0826
      9 C         139.8620  142.7668  165.4055 C.3     1  UNL1        0.0426
     10 C         139.4585  144.1678  165.0526 C.3     1  UNL1        0.0315
     11 C         138.4820  144.6252  164.0097 C.2     1  UNL1       -0.0289
     12 C         137.6680  143.7947  163.0625 C.2     1  UNL1       -0.0134
     13 C         137.6292  142.3016  162.9239 C.3     1  UNL1        0.0986
     14 N         138.3950  141.2703  163.6984 N.3     1  UNL1       -0.2674
     15 C         138.1324  139.8433  163.3183 C.3     1  UNL1        0.0899
     16 C         139.3887  141.4774  164.8029 C.3     1  UNL1        0.0771
@<TRIPOS>BOND
     1     1     2    1
     2     2     3   ar
     3     3     4   ar
     4     4     9    1
     5     9    10    1
     6    10    11    1
     7    11    12    2
     8    12    13    1
     9    13    14    1
    10    14    15    1
    11    14    16    1
    12     4     5   ar
    13     5     6   ar
    14     6     7   ar
    15     7     8    1
    16     7     2   ar
    17    16     9    1
@<TRIPOS>MOLECULE
*****
 16 17 0 0 0
SMALL
GASTEIGER

@<TRIPOS>ATOM
      1 C         139.3744  140.3820  170.1287 C.3     1  UNL1        0.0319
      2 C         140.1629  140.0510  168.8964 C.ar    1  UNL1       -0.0116
      3 C         139.4637  139.8913  167.5789 C.ar    1  UNL1       -0.0076
      4 C         140.2522  139.5603  166.3466 C.ar    1  UNL1       -0.0211
      5 C         141.7400  139.3889  166.4317 C.ar    1  UNL1       -0.0034
      6 C         142.4392  139.5486  167.7491 C.ar    1  UNL1        0.0108
      7 C         141.6507  139.8796  168.9815 C.ar    1  UNL1        0.0537
      8 CL        142.3499  140.0393  170.2989 Cl      1  UNL1       -0.0826
      9 C         139.5531  139.4006  165.0292 C.3     1  UNL1        0.0426
     10 C         139.6682  138.0479  164.3911 C.3     1  UNL1        0.0315
     11 C         139.0899  137.5752  163.0902 C.2     1  UNL1       -0.0289
     12 C         138.2538  138.3384  162.1063 C.2     1  UNL1       -0.0134
     13 C         137.7893  139.7628  162.1799 C.3     1  UNL1        0.0986
     14 N         138.0464  140.7758  163.2559 N.3     1  UNL1       -0.2674
     15 C         137.4381  142.1289  163.0346 C.3     1  UNL1        0.0899
     16 C         138.8313  140.6145  164.5240 C.3     1  UNL1        0.0771
@<TRIPOS>BOND
     1     1     2    1
     2     2     3   ar
     3     3     4   ar
     4     4     9    1
     5     9    10    1
     6    10    11    1
     7    11    12    2
     8    12    13    1
     9    13    14    1
    10    14    15    1
    11    14    16    1
    12     4     5   ar
    13     5     6   ar
    14     6     7   ar
    15     7     8    1
    16     7     2   ar
    17    16     9    1
@<TRIPOS>MOLECULE
*****
 16 17 0 0 0
SMALL
GASTEIGER

@<TRIPOS>ATOM
      1 C         140.3987  143.4806  169.6208 C.3     1  UNL1        0.0319
      2 C         140.6861  142.3405  168.6895 C.ar    1  UNL1       -0.0116
      3 C         141.6733  142.5142  167.5735 C.ar    1  UNL1       -0.0076
      4 C         141.9606  141.3741  166.6421 C.ar    1  UNL1       -0.0211
      5 C         141.2609  140.0602  166.8266 C.ar    1  UNL1       -0.0034
      6 C         140.2737  139.8864  167.9426 C.ar    1  UNL1        0.0108
      7 C         139.9863  141.0266  168.8740 C.ar    1  UNL1        0.0537
      8 CL        138.9992  140.8529  169.9899 Cl      1  UNL1       -0.0826
      9 C         142.9478  141.5478  165.5261 C.3     1  UNL1        0.0426
     10 C         143.7328  140.3244  165.1555 C.3     1  UNL1        0.0315
     11 C         144.7834  140.1730  164.0955 C.2     1  UNL1       -0.0289
     12 C         145.3083  141.2073  163.1445 C.2     1  UNL1       -0.0134
     13 C         144.9124  142.6486  163.0185 C.3     1  UNL1        0.0986
     14 N         143.8937  143.4115  163.8124 N.3     1  UNL1       -0.2674
     15 C         143.7274  144.8553  163.4412 C.3     1  UNL1        0.0899
     16 C         143.0194  142.9215  164.9284 C.3     1  UNL1        0.0771
@<TRIPOS>BOND
     1     1     2    1
     2     2     3   ar
     3     3     4   ar
     4     4     9    1
     5     9    10    1
     6    10    11    1
     7    11    12    2
     8    12    13    1
     9    13    14    1
    10    14    15    1
    11    14    16    1
    12     4     5   ar
    13     5     6   ar
    14     6     7   ar
    15     7     8    1
    16     7     2   ar
    17    16     9    1
@<TRIPOS>MOLECULE
*****
 16 17 0 0 0
SMALL
GASTEIGER

@<TRIPOS>ATOM
      1 C         143.0559  142.1851  168.7128 C.3     1  UNL1        0.0319
      2 C         141.7578  141.4429  168.5949 C.ar    1  UNL1       -0.0116
      3 C         141.2693  140.9951  167.2491 C.ar    1  UNL1       -0.0076
      4 C         139.9712  140.2529  167.1312 C.ar    1  UNL1       -0.0211
      5 C         139.1615  139.9584  168.3590 C.ar    1  UNL1       -0.0034
      6 C         139.6498  140.4060  169.7048 C.ar    1  UNL1        0.0108
      7 C         140.9480  141.1483  169.8227 C.ar    1  UNL1        0.0537
      8 CL        141.4364  141.5960  171.1684 Cl      1  UNL1       -0.0826
      9 C         139.4828  139.8052  165.7855 C.3     1  UNL1        0.0426
     10 C         139.8543  138.4065  165.3906 C.3     1  UNL1        0.0315
     11 C         139.5222  137.6725  164.1253 C.2     1  UNL1       -0.0289
     12 C         138.7367  138.1558  162.9425 C.2     1  UNL1       -0.0134
     13 C         138.0891  139.4924  162.7326 C.3     1  UNL1        0.0986
     14 N         138.0673  140.6760  163.6539 N.3     1  UNL1       -0.2674
     15 C         137.3273  141.8794  163.1499 C.3     1  UNL1        0.0899
     16 C         138.6875  140.8151  165.0126 C.3     1  UNL1        0.0771
@<TRIPOS>BOND
     1     1     2    1
     2     2     3   ar
     3     3     4   ar
     4     4     9    1
     5     9    10    1
     6    10    11    1
     7    11    12    2
     8    12    13    1
     9    13    14    1
    10    14    15    1
    11    14    16    1
    12     4     5   ar
    13     5     6   ar
    14     6     7   ar
    15     7     8    1
    16     7     2   ar
    17    16     9    1
@<TRIPOS>MOLECULE
*****
 16 17 0 0 0
SMALL
GASTEIGER

@<TRIPOS>ATOM
      1 C         143.3653  138.6001  166.8046 C.3     1  UNL1        0.0319
      2 C         142.2703  139.5248  167.2471 C.ar    1  UNL1       -0.0116
      3 C         141.5137  140.3308  166.2331 C.ar    1  UNL1       -0.0076
      4 C         140.4187  141.2555  166.6757 C.ar    1  UNL1       -0.0211
      5 C         140.0801  141.3741  168.1321 C.ar    1  UNL1       -0.0034
      6 C         140.8366  140.5681  169.1461 C.ar    1  UNL1        0.0108
      7 C         141.9317  139.6434  168.7036 C.ar    1  UNL1        0.0537
      8 CL        142.6882  138.8375  169.7175 Cl      1  UNL1       -0.0826
      9 C         139.6622  142.0615  165.6618 C.3     1  UNL1        0.0426
     10 C         139.7053  143.5491  165.8495 C.3     1  UNL1        0.0315
     11 C         139.0594  144.6161  165.0160 C.2     1  UNL1       -0.0289
     12 C         138.2111  144.4589  163.7892 C.2     1  UNL1       -0.0134
     13 C         137.7989  143.1960  163.0925 C.3     1  UNL1        0.0986
     14 N         138.1334  141.7783  163.4509 N.3     1  UNL1       -0.2674
     15 C         137.5633  140.7265  162.5462 C.3     1  UNL1        0.0899
     16 C         138.9626  141.2735  164.5943 C.3     1  UNL1        0.0771
@<TRIPOS>BOND
     1     1     2    1
     2     2     3   ar
     3     3     4   ar
     4     4     9    1
     5     9    10    1
     6    10    11    1
     7    11    12    2
     8    12    13    1
     9    13    14    1
    10    14    15    1
    11    14    16    1
    12     4     5   ar
    13     5     6   ar
    14     6     7   ar
    15     7     8    1
    16     7     2   ar
    17    16     9    1
@<TRIPOS>MOLECULE
*****
 16 17 0 0 0
SMALL
GASTEIGER

@<TRIPOS>ATOM
      1 C         139.3918  140.0553  168.8465 C.3     1  UNL1        0.0319
      2 C         139.4757  140.2550  167.3622 C.ar    1  UNL1       -0.0116
      3 C         140.4441  141.2491  166.7928 C.ar    1  UNL1       -0.0076
      4 C         140.5280  141.4489  165.3085 C.ar    1  UNL1       -0.0211
      5 C         139.6435  140.6547  164.3937 C.ar    1  UNL1       -0.0034
      6 C         138.6750  139.6607  164.9631 C.ar    1  UNL1        0.0108
      7 C         138.5912  139.4609  166.4474 C.ar    1  UNL1        0.0537
      8 CL        137.6228  138.4670  167.0168 Cl      1  UNL1       -0.0826
      9 C         141.4964  142.4428  164.7391 C.3     1  UNL1        0.0426
     10 C         140.9386  143.8063  164.4563 C.3     1  UNL1        0.0315
     11 C         141.6412  145.0057  163.8923 C.2     1  UNL1       -0.0289
     12 C         143.0749  145.1377  163.4718 C.2     1  UNL1       -0.0134
     13 C         144.1603  144.1030  163.5113 C.3     1  UNL1        0.0986
     14 N         144.0799  142.6808  163.9812 N.3     1  UNL1       -0.2674
     15 C         145.3535  141.8933  163.8931 C.3     1  UNL1        0.0899
     16 C         142.8943  141.9420  164.5276 C.3     1  UNL1        0.0771
@<TRIPOS>BOND
     1     1     2    1
     2     2     3   ar
     3     3     4   ar
     4     4     9    1
     5     9    10    1
     6    10    11    1
     7    11    12    2
     8    12    13    1
     9    13    14    1
    10    14    15    1
    11    14    16    1
    12     4     5   ar
    13     5     6   ar
    14     6     7   ar
    15     7     8    1
    16     7     2   ar
    17    16     9    1
@<TRIPOS>MOLECULE
*****
 16 17 0 0 0
SMALL
GASTEIGER

@<TRIPOS>ATOM
      1 C         139.2145  140.2126  168.9885 C.3     1  UNL1        0.0319
      2 C         139.5715  139.8857  167.5688 C.ar    1  UNL1       -0.0116
      3 C         140.8485  140.4055  166.9778 C.ar    1  UNL1       -0.0076
      4 C         141.2055  140.0785  165.5581 C.ar    1  UNL1       -0.0211
      5 C         140.2856  139.2319  164.7293 C.ar    1  UNL1       -0.0034
      6 C         139.0086  138.7120  165.3202 C.ar    1  UNL1        0.0108
      7 C         138.6516  139.0390  166.7400 C.ar    1  UNL1        0.0537
      8 CL        137.3747  138.5192  167.3310 Cl      1  UNL1       -0.0826
      9 C         142.4824  140.5983  164.9670 C.3     1  UNL1        0.0426
     10 C         143.6058  139.6087  164.8723 C.3     1  UNL1        0.0315
     11 C         144.9914  139.8153  164.3360 C.2     1  UNL1       -0.0289
     12 C         145.5957  141.0624  163.7621 C.2     1  UNL1       -0.0134
     13 C         144.9639  142.4109  163.5826 C.3     1  UNL1        0.0986
     14 N         143.5716  142.8454  163.9328 N.3     1  UNL1       -0.2674
     15 C         143.2397  144.2757  163.6264 C.3     1  UNL1        0.0899
     16 C         142.4673  142.0386  164.5489 C.3     1  UNL1        0.0771
@<TRIPOS>BOND
     1     1     2    1
     2     2     3   ar
     3     3     4   ar
     4     4     9    1
     5     9    10    1
     6    10    11    1
     7    11    12    2
     8    12    13    1
     9    13    14    1
    10    14    15    1
    11    14    16    1
    12     4     5   ar
    13     5     6   ar
    14     6     7   ar
    15     7     8    1
    16     7     2   ar
    17    16     9    1
@<TRIPOS>MOLECULE
*****
 16 17 0 0 0
SMALL
GASTEIGER

@<TRIPOS>ATOM
      1 C         143.4114  138.4286  166.8999 C.3     1  UNL1        0.0319
      2 C         142.6430  139.6573  167.2868 C.ar    1  UNL1       -0.0116
      3 C         142.3039  140.6872  166.2501 C.ar    1  UNL1       -0.0076
      4 C         141.5355  141.9159  166.6370 C.ar    1  UNL1       -0.0211
      5 C         141.1062  142.1149  168.0603 C.ar    1  UNL1       -0.0034
      6 C         141.4453  141.0851  169.0970 C.ar    1  UNL1        0.0108
      7 C         142.2137  139.8563  168.7102 C.ar    1  UNL1        0.0537
      8 CL        142.5528  138.8265  169.7467 Cl      1  UNL1       -0.0826
      9 C         141.1964  142.9458  165.6004 C.3     1  UNL1        0.0426
     10 C         139.7587  143.3712  165.5517 C.3     1  UNL1        0.0315
     11 C         139.1094  144.3700  164.6402 C.2     1  UNL1       -0.0289
     12 C         139.7372  145.1899  163.5524 C.2     1  UNL1       -0.0134
     13 C         141.1694  145.2137  163.1072 C.3     1  UNL1        0.0986
     14 N         142.3276  144.4233  163.6401 N.3     1  UNL1       -0.2674
     15 C         143.6484  144.6756  162.9755 C.3     1  UNL1        0.0899
     16 C         142.3395  143.4140  164.7497 C.3     1  UNL1        0.0771
@<TRIPOS>BOND
     1     1     2    1
     2     2     3   ar
     3     3     4   ar
     4     4     9    1
     5     9    10    1
     6    10    11    1
     7    11    12    2
     8    12    13    1
     9    13    14    1
    10    14    15    1
    11    14    16    1
    12     4     5   ar
    13     5     6   ar
    14     6     7   ar
    15     7     8    1
    16     7     2   ar
    17    16     9    1
