@<TRIPOS>MOLECULE
*****
 28 31 0 0 0
SMALL
GASTEIGER

@<TRIPOS>ATOM
      1 C         144.5453  142.5269  160.3478 C.3     1  UNL1        0.1168
      2 N         144.0539  143.0314  161.6722 N.am    1  UNL1       -0.2582
      3 C         142.7849  143.8277  161.7474 C.2     1  UNL1        0.3075
      4 O         142.2935  144.3322  163.0717 O.2     1  UNL1       -0.2523
      5 N         142.0075  144.1196  160.4982 N.am    1  UNL1       -0.2643
      6 C         142.3728  143.6835  159.1103 C.3     1  UNL1        0.0950
      7 C         141.3193  144.1932  158.1719 C.3     1  UNL1        0.0233
      8 C         140.3029  144.9443  158.9800 C.3     1  UNL1        0.0230
      9 C         140.7283  144.8988  160.4178 C.3     1  UNL1        0.0928
     10 C         144.8313  142.7395  162.9213 C.3     1  UNL1        0.1217
     11 C         144.1218  142.2517  164.1496 C.ar    1  UNL1       -0.0023
     12 C         144.1870  143.0476  165.4193 C.ar    1  UNL1       -0.0026
     13 C         143.4775  142.5597  166.6475 C.ar    1  UNL1       -0.0003
     14 C         142.7027  141.2760  166.6060 C.ar    1  UNL1       -0.0000
     15 C         142.6374  140.4801  165.3363 C.ar    1  UNL1       -0.0003
     16 C         143.3470  140.9679  164.1081 C.ar    1  UNL1       -0.0026
     17 C         141.9931  140.7881  167.8343 C.ar    1  UNL1       -0.0000
     18 C         142.6769  139.8310  168.7651 C.ar    1  UNL1       -0.0000
     19 C         141.9673  139.3431  169.9934 C.ar    1  UNL1        0.0000
     20 C         140.5740  139.8125  170.2908 C.ar    1  UNL1        0.0000
     21 C         139.8903  140.7698  169.3600 C.ar    1  UNL1        0.0000
     22 C         140.5999  141.2575  168.1318 C.ar    1  UNL1       -0.0000
     23 C         140.0019  145.5229  161.5723 C.3     1  UNL1        0.0922
     24 N         139.1335  144.6783  162.4569 N.3     1  UNL1       -0.2713
     25 C         138.8739  144.9079  163.9163 C.3     1  UNL1        0.0722
     26 C         137.9522  143.8273  164.3987 C.3     1  UNL1        0.0188
     27 C         137.6421  142.9299  163.2375 C.3     1  UNL1        0.0188
     28 C         138.3722  143.4559  162.0373 C.3     1  UNL1        0.0722
@<TRIPOS>BOND
     1     1     2    1
     2     2    10    1
     3    10    11    1
     4    11    12   ar
     5    12    13   ar
     6    13    14   ar
     7    14    17    1
     8    17    18   ar
     9    18    19   ar
    10    19    20   ar
    11    20    21   ar
    12    21    22   ar
    13    14    15   ar
    14    15    16   ar
    15     2     3   am
    16     3     4    2
    17     3     5   am
    18     5     6    1
    19     6     7    1
    20     7     8    1
    21     8     9    1
    22     9    23    1
    23    23    24    1
    24    24    25    1
    25    25    26    1
    26    26    27    1
    27    27    28    1
    28    16    11   ar
    29     9     5    1
    30    28    24    1
    31    22    17   ar
@<TRIPOS>MOLECULE
*****
 28 31 0 0 0
SMALL
GASTEIGER

@<TRIPOS>ATOM
      1 C         137.7268  139.0840  161.6425 C.3     1  UNL1        0.1168
      2 N         138.9417  138.2860  162.0130 N.am    1  UNL1       -0.2582
      3 C         140.0756  138.1508  161.0403 C.2     1  UNL1        0.3075
      4 O         141.2904  137.3528  161.4107 O.2     1  UNL1       -0.2523
      5 N         139.9946  138.8137  159.6971 N.am    1  UNL1       -0.2643
      6 C         138.8499  139.6392  159.1889 C.3     1  UNL1        0.0950
      7 C         139.1919  140.1032  157.8041 C.3     1  UNL1        0.0233
      8 C         140.5480  139.5644  157.4564 C.3     1  UNL1        0.0230
      9 C         141.0441  138.7674  158.6264 C.3     1  UNL1        0.0928
     10 C         139.0227  137.6231  163.3561 C.3     1  UNL1        0.1217
     11 C         139.2883  138.4443  164.5830 C.ar    1  UNL1       -0.0023
     12 C         140.5037  139.3208  164.6502 C.ar    1  UNL1       -0.0026
     13 C         140.7693  140.1419  165.8770 C.ar    1  UNL1       -0.0003
     14 C         139.8195  140.0865  167.0367 C.ar    1  UNL1       -0.0000
     15 C         138.6041  139.2101  166.9695 C.ar    1  UNL1       -0.0003
     16 C         138.3385  138.3889  165.7426 C.ar    1  UNL1       -0.0026
     17 C         140.0851  140.9077  168.2635 C.ar    1  UNL1       -0.0000
     18 C         140.3509  142.3786  168.1384 C.ar    1  UNL1       -0.0000
     19 C         140.6165  143.1998  169.3653 C.ar    1  UNL1        0.0000
     20 C         140.6163  142.5500  170.7173 C.ar    1  UNL1        0.0000
     21 C         140.3505  141.0790  170.8423 C.ar    1  UNL1        0.0000
     22 C         140.0849  140.2579  169.6155 C.ar    1  UNL1       -0.0000
     23 C         142.3588  138.0501  158.7108 C.3     1  UNL1        0.0922
     24 N         142.9438  137.4101  157.4869 N.3     1  UNL1       -0.2713
     25 C         142.9765  135.9400  157.1907 C.3     1  UNL1        0.0722
     26 C         143.6518  135.7491  155.8650 C.3     1  UNL1        0.0188
     27 C         144.0365  137.1013  155.3417 C.3     1  UNL1        0.0188
     28 C         143.5989  138.1278  156.3442 C.3     1  UNL1        0.0722
@<TRIPOS>BOND
     1     1     2    1
     2     2    10    1
     3    10    11    1
     4    11    12   ar
     5    12    13   ar
     6    13    14   ar
     7    14    17    1
     8    17    18   ar
     9    18    19   ar
    10    19    20   ar
    11    20    21   ar
    12    21    22   ar
    13    14    15   ar
    14    15    16   ar
    15     2     3   am
    16     3     4    2
    17     3     5   am
    18     5     6    1
    19     6     7    1
    20     7     8    1
    21     8     9    1
    22     9    23    1
    23    23    24    1
    24    24    25    1
    25    25    26    1
    26    26    27    1
    27    27    28    1
    28    16    11   ar
    29     9     5    1
    30    28    24    1
    31    22    17   ar
@<TRIPOS>MOLECULE
*****
 28 31 0 0 0
SMALL
GASTEIGER

@<TRIPOS>ATOM
      1 C         138.1171  139.5943  160.7332 C.3     1  UNL1        0.1168
      2 N         138.8184  139.4363  162.0497 N.am    1  UNL1       -0.2582
      3 C         140.2545  139.0046  162.0874 C.2     1  UNL1        0.3075
      4 O         140.9558  138.8466  163.4039 O.2     1  UNL1       -0.2523
      5 N         140.9892  138.7309  160.8086 N.am    1  UNL1       -0.2643
      6 C         140.4227  138.8455  159.4244 C.3     1  UNL1        0.0950
      7 C         141.5027  138.4800  158.4498 C.3     1  UNL1        0.0233
      8 C         142.7368  138.1395  159.2317 C.3     1  UNL1        0.0230
      9 C         142.4194  138.2946  160.6895 C.3     1  UNL1        0.0928
     10 C         138.0837  139.7100  163.3285 C.3     1  UNL1        0.1217
     11 C         138.8080  140.3136  164.4952 C.ar    1  UNL1       -0.0023
     12 C         139.0291  139.5062  165.7399 C.ar    1  UNL1       -0.0026
     13 C         139.7533  140.1099  166.9065 C.ar    1  UNL1       -0.0003
     14 C         140.2564  141.5208  166.8285 C.ar    1  UNL1       -0.0000
     15 C         140.0353  142.3281  165.5838 C.ar    1  UNL1       -0.0003
     16 C         139.3111  141.7245  164.4172 C.ar    1  UNL1       -0.0026
     17 C         140.9807  142.1244  167.9952 C.ar    1  UNL1       -0.0000
     18 C         140.2928  143.1361  168.8631 C.ar    1  UNL1       -0.0000
     19 C         141.0171  143.7397  170.0298 C.ar    1  UNL1        0.0000
     20 C         142.4292  143.3316  170.3286 C.ar    1  UNL1        0.0000
     21 C         143.1171  142.3199  169.4606 C.ar    1  UNL1        0.0000
     22 C         142.3929  141.7163  168.2940 C.ar    1  UNL1       -0.0000
     23 C         143.3660  138.0554  161.8283 C.3     1  UNL1        0.0922
     24 N         144.0900  139.2090  162.4567 N.3     1  UNL1       -0.2713
     25 C         144.4279  140.5080  161.7872 C.3     1  UNL1        0.0722
     26 C         145.1500  141.3680  162.7817 C.3     1  UNL1        0.0188
     27 C         145.2583  140.6005  164.0659 C.3     1  UNL1        0.0188
     28 C         144.6032  139.2661  163.8650 C.3     1  UNL1        0.0722
@<TRIPOS>BOND
     1     1     2    1
     2     2    10    1
     3    10    11    1
     4    11    12   ar
     5    12    13   ar
     6    13    14   ar
     7    14    17    1
     8    17    18   ar
     9    18    19   ar
    10    19    20   ar
    11    20    21   ar
    12    21    22   ar
    13    14    15   ar
    14    15    16   ar
    15     2     3   am
    16     3     4    2
    17     3     5   am
    18     5     6    1
    19     6     7    1
    20     7     8    1
    21     8     9    1
    22     9    23    1
    23    23    24    1
    24    24    25    1
    25    25    26    1
    26    26    27    1
    27    27    28    1
    28    16    11   ar
    29     9     5    1
    30    28    24    1
    31    22    17   ar
@<TRIPOS>MOLECULE
*****
 28 31 0 0 0
SMALL
GASTEIGER

@<TRIPOS>ATOM
      1 C         138.2048  139.1749  162.0913 C.3     1  UNL1        0.1168
      2 N         137.9330  140.6501  162.0902 N.am    1  UNL1       -0.2582
      3 C         138.1932  141.4598  160.8546 C.2     1  UNL1        0.3075
      4 O         137.9214  142.9349  160.8535 O.2     1  UNL1       -0.2523
      5 N         138.7252  140.7942  159.6200 N.am    1  UNL1       -0.2643
      6 C         139.0433  139.3358  159.4720 C.3     1  UNL1        0.0950
      7 C         139.5472  139.1105  158.0773 C.3     1  UNL1        0.0233
      8 C         139.5405  140.4297  157.3632 C.3     1  UNL1        0.0230
      9 C         139.0324  141.4703  158.3168 C.3     1  UNL1        0.0928
     10 C         137.4010  141.3156  163.3247 C.3     1  UNL1        0.1217
     11 C         138.3171  141.5984  164.4784 C.ar    1  UNL1       -0.0023
     12 C         138.6958  140.4965  165.4230 C.ar    1  UNL1       -0.0026
     13 C         139.6119  140.7793  166.5765 C.ar    1  UNL1       -0.0003
     14 C         140.1493  142.1640  166.7855 C.ar    1  UNL1       -0.0000
     15 C         139.7706  143.2660  165.8409 C.ar    1  UNL1       -0.0003
     16 C         138.8545  142.9831  164.6873 C.ar    1  UNL1       -0.0026
     17 C         141.0654  142.4468  167.9391 C.ar    1  UNL1       -0.0000
     18 C         142.4763  141.9379  167.9188 C.ar    1  UNL1       -0.0000
     19 C         143.3924  142.2207  169.0724 C.ar    1  UNL1        0.0000
     20 C         142.8976  143.0125  170.2464 C.ar    1  UNL1        0.0000
     21 C         141.4867  143.5215  170.2667 C.ar    1  UNL1        0.0000
     22 C         140.5707  143.2387  169.1131 C.ar    1  UNL1       -0.0000
     23 C         138.8617  142.9306  158.0192 C.3     1  UNL1        0.0922
     24 N         140.0635  143.8239  157.9326 N.3     1  UNL1       -0.2713
     25 C         140.3003  145.0643  158.7421 C.3     1  UNL1        0.0722
     26 C         141.6227  145.6406  158.3311 C.3     1  UNL1        0.0188
     27 C         142.2033  144.7564  157.2676 C.3     1  UNL1        0.0188
     28 C         141.2396  143.6336  157.0213 C.3     1  UNL1        0.0722
@<TRIPOS>BOND
     1     1     2    1
     2     2    10    1
     3    10    11    1
     4    11    12   ar
     5    12    13   ar
     6    13    14   ar
     7    14    17    1
     8    17    18   ar
     9    18    19   ar
    10    19    20   ar
    11    20    21   ar
    12    21    22   ar
    13    14    15   ar
    14    15    16   ar
    15     2     3   am
    16     3     4    2
    17     3     5   am
    18     5     6    1
    19     6     7    1
    20     7     8    1
    21     8     9    1
    22     9    23    1
    23    23    24    1
    24    24    25    1
    25    25    26    1
    26    26    27    1
    27    27    28    1
    28    16    11   ar
    29     9     5    1
    30    28    24    1
    31    22    17   ar
@<TRIPOS>MOLECULE
*****
 28 31 0 0 0
SMALL
GASTEIGER

@<TRIPOS>ATOM
      1 C         140.9389  138.2342  160.7730 C.3     1  UNL1        0.1168
      2 N         142.0059  138.8115  161.6554 N.am    1  UNL1       -0.2582
      3 C         142.5688  140.1703  161.3608 C.2     1  UNL1        0.3075
      4 O         143.6357  140.7476  162.2430 O.2     1  UNL1       -0.2523
      5 N         142.0647  140.9518  160.1838 N.am    1  UNL1       -0.2643
      6 C         141.0072  140.5069  159.2175 C.3     1  UNL1        0.0950
      7 C         140.8187  141.5956  158.2030 C.3     1  UNL1        0.0233
      8 C         141.7597  142.7134  158.5423 C.3     1  UNL1        0.0230
      9 C         142.5298  142.3155  159.7665 C.3     1  UNL1        0.0928
     10 C         142.5099  138.0300  162.8323 C.3     1  UNL1        0.1217
     11 C         142.2301  138.5089  164.2260 C.ar    1  UNL1       -0.0023
     12 C         140.8313  138.8723  164.6276 C.ar    1  UNL1       -0.0026
     13 C         140.5516  139.3512  166.0213 C.ar    1  UNL1       -0.0003
     14 C         141.6707  139.4667  167.0134 C.ar    1  UNL1       -0.0000
     15 C         143.0695  139.1033  166.6119 C.ar    1  UNL1       -0.0003
     16 C         143.3492  138.6244  165.2182 C.ar    1  UNL1       -0.0026
     17 C         141.3909  139.9456  168.4071 C.ar    1  UNL1       -0.0000
     18 C         142.5109  140.0666  169.3976 C.ar    1  UNL1       -0.0000
     19 C         142.2311  140.5456  170.7913 C.ar    1  UNL1        0.0000
     20 C         140.8313  140.9034  171.1945 C.ar    1  UNL1        0.0000
     21 C         139.7113  140.7823  170.2040 C.ar    1  UNL1        0.0000
     22 C         139.9911  140.3034  168.8104 C.ar    1  UNL1       -0.0000
     23 C         143.5805  143.1371  160.4529 C.3     1  UNL1        0.0922
     24 N         143.2260  143.9476  161.6643 N.3     1  UNL1       -0.2713
     25 C         141.8639  144.4761  162.0039 C.3     1  UNL1        0.0722
     26 C         141.9676  145.2270  163.2983 C.3     1  UNL1        0.0188
     27 C         143.3937  145.1626  163.7587 C.3     1  UNL1        0.0188
     28 C         144.1715  144.3719  162.7488 C.3     1  UNL1        0.0722
@<TRIPOS>BOND
     1     1     2    1
     2     2    10    1
     3    10    11    1
     4    11    12   ar
     5    12    13   ar
     6    13    14   ar
     7    14    17    1
     8    17    18   ar
     9    18    19   ar
    10    19    20   ar
    11    20    21   ar
    12    21    22   ar
    13    14    15   ar
    14    15    16   ar
    15     2     3   am
    16     3     4    2
    17     3     5   am
    18     5     6    1
    19     6     7    1
    20     7     8    1
    21     8     9    1
    22     9    23    1
    23    23    24    1
    24    24    25    1
    25    25    26    1
    26    26    27    1
    27    27    28    1
    28    16    11   ar
    29     9     5    1
    30    28    24    1
    31    22    17   ar
@<TRIPOS>MOLECULE
*****
 28 31 0 0 0
SMALL
GASTEIGER

@<TRIPOS>ATOM
      1 C         143.8632  137.9938  161.7962 C.3     1  UNL1        0.1168
      2 N         144.2876  139.3637  162.2357 N.am    1  UNL1       -0.2582
      3 C         144.1553  140.5268  161.2977 C.2     1  UNL1        0.3075
      4 O         144.5797  141.8967  161.7372 O.2     1  UNL1       -0.2523
      5 N         143.5987  140.3199  159.9202 N.am    1  UNL1       -0.2643
      6 C         143.1350  139.0152  159.3435 C.3     1  UNL1        0.0950
      7 C         142.6578  139.2703  157.9445 C.3     1  UNL1        0.0233
      8 C         142.8264  140.7328  157.6567 C.3     1  UNL1        0.0230
      9 C         143.4079  141.3815  158.8778 C.3     1  UNL1        0.0928
     10 C         144.8443  139.5706  163.6131 C.3     1  UNL1        0.1217
     11 C         143.9362  139.9771  164.7358 C.ar    1  UNL1       -0.0023
     12 C         143.1609  138.9363  165.4877 C.ar    1  UNL1       -0.0026
     13 C         142.2529  139.3428  166.6103 C.ar    1  UNL1       -0.0003
     14 C         142.1203  140.7902  166.9810 C.ar    1  UNL1       -0.0000
     15 C         142.8956  141.8311  166.2291 C.ar    1  UNL1       -0.0003
     16 C         143.8036  141.4245  165.1065 C.ar    1  UNL1       -0.0026
     17 C         141.2123  141.1967  168.1036 C.ar    1  UNL1       -0.0000
     18 C         141.2427  142.6044  168.6206 C.ar    1  UNL1       -0.0000
     19 C         140.3347  143.0110  169.7433 C.ar    1  UNL1        0.0000
     20 C         139.3962  142.0097  170.3489 C.ar    1  UNL1        0.0000
     21 C         139.3658  140.6019  169.8319 C.ar    1  UNL1        0.0000
     22 C         140.2738  140.1954  168.7093 C.ar    1  UNL1       -0.0000
     23 C         143.7403  142.8363  159.0297 C.3     1  UNL1        0.0922
     24 N         142.6432  143.8392  159.2310 N.3     1  UNL1       -0.2713
     25 C         141.9838  144.1746  160.5359 C.3     1  UNL1        0.0722
     26 C         140.9460  145.2255  160.2741 C.3     1  UNL1        0.0188
     27 C         140.9640  145.5396  158.8074 C.3     1  UNL1        0.0188
     28 C         142.0130  144.6827  158.1628 C.3     1  UNL1        0.0722
@<TRIPOS>BOND
     1     1     2    1
     2     2    10    1
     3    10    11    1
     4    11    12   ar
     5    12    13   ar
     6    13    14   ar
     7    14    17    1
     8    17    18   ar
     9    18    19   ar
    10    19    20   ar
    11    20    21   ar
    12    21    22   ar
    13    14    15   ar
    14    15    16   ar
    15     2     3   am
    16     3     4    2
    17     3     5   am
    18     5     6    1
    19     6     7    1
    20     7     8    1
    21     8     9    1
    22     9    23    1
    23    23    24    1
    24    24    25    1
    25    25    26    1
    26    26    27    1
    27    27    28    1
    28    16    11   ar
    29     9     5    1
    30    28    24    1
    31    22    17   ar
@<TRIPOS>MOLECULE
*****
 28 31 0 0 0
SMALL
GASTEIGER

@<TRIPOS>ATOM
      1 C         141.6361  137.7989  161.3333 C.3     1  UNL1        0.1168
      2 N         140.4689  138.3764  162.0779 N.am    1  UNL1       -0.2582
      3 C         139.7724  139.5960  161.5510 C.2     1  UNL1        0.3075
      4 O         138.6053  140.1735  162.2955 O.2     1  UNL1       -0.2523
      5 N         140.2431  140.2381  160.2797 N.am    1  UNL1       -0.2643
      6 C         141.3902  139.7760  159.4307 C.3     1  UNL1        0.0950
      7 C         141.5053  140.7073  158.2605 C.3     1  UNL1        0.0233
      8 C         140.4293  141.7449  158.3861 C.3     1  UNL1        0.0230
      9 C         139.6492  141.4548  159.6341 C.3     1  UNL1        0.0928
     10 C         139.9983  137.7344  163.3492 C.3     1  UNL1        0.1217
     11 C         140.1149  138.4723  164.6500 C.ar    1  UNL1       -0.0023
     12 C         141.4582  138.9327  165.1332 C.ar    1  UNL1       -0.0026
     13 C         141.5747  139.6706  166.4340 C.ar    1  UNL1       -0.0003
     14 C         140.3480  139.9480  167.2514 C.ar    1  UNL1       -0.0000
     15 C         139.0048  139.4876  166.7681 C.ar    1  UNL1       -0.0003
     16 C         138.8882  138.7498  165.4674 C.ar    1  UNL1       -0.0026
     17 C         140.4647  140.6860  168.5522 C.ar    1  UNL1       -0.0000
     18 C         140.6688  139.9266  169.8295 C.ar    1  UNL1       -0.0000
     19 C         140.7854  140.6645  171.1303 C.ar    1  UNL1        0.0000
     20 C         140.6979  142.1618  171.1537 C.ar    1  UNL1        0.0000
     21 C         140.4937  142.9211  169.8762 C.ar    1  UNL1        0.0000
     22 C         140.3771  142.1832  168.5755 C.ar    1  UNL1       -0.0000
     23 C         138.4805  142.2432  160.1465 C.3     1  UNL1        0.0922
     24 N         138.6851  143.2849  161.2062 N.3     1  UNL1       -0.2713
     25 C         137.8597  143.4542  162.4472 C.3     1  UNL1        0.0722
     26 C         138.4157  144.6141  163.2190 C.3     1  UNL1        0.0188
     27 C         139.5847  145.1616  162.4550 C.3     1  UNL1        0.0188
     28 C         139.7512  144.3400  161.2110 C.3     1  UNL1        0.0722
@<TRIPOS>BOND
     1     1     2    1
     2     2    10    1
     3    10    11    1
     4    11    12   ar
     5    12    13   ar
     6    13    14   ar
     7    14    17    1
     8    17    18   ar
     9    18    19   ar
    10    19    20   ar
    11    20    21   ar
    12    21    22   ar
    13    14    15   ar
    14    15    16   ar
    15     2     3   am
    16     3     4    2
    17     3     5   am
    18     5     6    1
    19     6     7    1
    20     7     8    1
    21     8     9    1
    22     9    23    1
    23    23    24    1
    24    24    25    1
    25    25    26    1
    26    26    27    1
    27    27    28    1
    28    16    11   ar
    29     9     5    1
    30    28    24    1
    31    22    17   ar
@<TRIPOS>MOLECULE
*****
 28 31 0 0 0
SMALL
GASTEIGER

@<TRIPOS>ATOM
      1 C         142.6991  138.5453  159.2780 C.3     1  UNL1        0.1168
      2 N         141.9360  138.3849  160.5594 N.am    1  UNL1       -0.2582
      3 C         140.5528  138.9517  160.6845 C.2     1  UNL1        0.3075
      4 O         139.7896  138.7913  161.9658 O.2     1  UNL1       -0.2523
      5 N         139.9328  139.6788  159.5282 N.am    1  UNL1       -0.2643
      6 C         140.5709  139.9163  158.1916 C.3     1  UNL1        0.0950
      7 C         139.5983  140.6804  157.3429 C.3     1  UNL1        0.0233
      8 C         138.3591  140.9150  158.1549 C.3     1  UNL1        0.0230
      9 C         138.5658  140.2960  159.5056 C.3     1  UNL1        0.0928
     10 C         142.5560  137.6579  161.7156 C.3     1  UNL1        0.1217
     11 C         142.6202  138.3106  163.0647 C.ar    1  UNL1       -0.0023
     12 C         143.4164  139.5679  163.2524 C.ar    1  UNL1       -0.0026
     13 C         143.4806  140.2206  164.6013 C.ar    1  UNL1       -0.0003
     14 C         142.7486  139.6160  165.7627 C.ar    1  UNL1       -0.0000
     15 C         141.9525  138.3587  165.5750 C.ar    1  UNL1       -0.0003
     16 C         141.8883  137.7060  164.2260 C.ar    1  UNL1       -0.0026
     17 C         142.8129  140.2687  167.1117 C.ar    1  UNL1       -0.0000
     18 C         142.6034  139.4507  168.3514 C.ar    1  UNL1       -0.0000
     19 C         142.6676  140.1035  169.7005 C.ar    1  UNL1        0.0000
     20 C         142.9414  141.5742  169.8097 C.ar    1  UNL1        0.0000
     21 C         143.1509  142.3922  168.5699 C.ar    1  UNL1        0.0000
     22 C         143.0867  141.7395  167.2210 C.ar    1  UNL1       -0.0000
     23 C         137.5789  140.2944  160.6351 C.3     1  UNL1        0.0922
     24 N         137.6382  141.3648  161.6843 N.3     1  UNL1       -0.2713
     25 C         138.0482  142.7911  161.4666 C.3     1  UNL1        0.0722
     26 C         137.9613  143.5045  162.7833 C.3     1  UNL1        0.0188
     27 C         137.4976  142.5191  163.8147 C.3     1  UNL1        0.0188
     28 C         137.2979  141.1966  163.1355 C.3     1  UNL1        0.0722
@<TRIPOS>BOND
     1     1     2    1
     2     2    10    1
     3    10    11    1
     4    11    12   ar
     5    12    13   ar
     6    13    14   ar
     7    14    17    1
     8    17    18   ar
     9    18    19   ar
    10    19    20   ar
    11    20    21   ar
    12    21    22   ar
    13    14    15   ar
    14    15    16   ar
    15     2     3   am
    16     3     4    2
    17     3     5   am
    18     5     6    1
    19     6     7    1
    20     7     8    1
    21     8     9    1
    22     9    23    1
    23    23    24    1
    24    24    25    1
    25    25    26    1
    26    26    27    1
    27    27    28    1
    28    16    11   ar
    29     9     5    1
    30    28    24    1
    31    22    17   ar
@<TRIPOS>MOLECULE
*****
 28 31 0 0 0
SMALL
GASTEIGER

@<TRIPOS>ATOM
      1 C         143.3809  142.8915  160.6251 C.3     1  UNL1        0.1168
      2 N         142.1712  142.6403  161.4758 N.am    1  UNL1       -0.2582
      3 C         141.4267  141.3436  161.3566 C.2     1  UNL1        0.3075
      4 O         140.2171  141.0924  162.2072 O.2     1  UNL1       -0.2523
      5 N         141.8919  140.2981  160.3867 N.am    1  UNL1       -0.2643
      6 C         143.0781  140.4065  159.4750 C.3     1  UNL1        0.0950
      7 C         143.1718  139.1361  158.6832 C.3     1  UNL1        0.0233
      8 C         142.0435  138.2423  159.1055 C.3     1  UNL1        0.0230
      9 C         141.2525  138.9605  160.1584 C.3     1  UNL1        0.0928
     10 C         141.7061  143.6858  162.4456 C.3     1  UNL1        0.1217
     11 C         141.5192  143.3367  163.8924 C.ar    1  UNL1       -0.0023
     12 C         140.2149  143.6305  164.5724 C.ar    1  UNL1       -0.0026
     13 C         140.0281  143.2814  166.0192 C.ar    1  UNL1       -0.0003
     14 C         141.1455  142.6384  166.7859 C.ar    1  UNL1       -0.0000
     15 C         142.4498  142.3445  166.1059 C.ar    1  UNL1       -0.0003
     16 C         142.6366  142.6937  164.6591 C.ar    1  UNL1       -0.0026
     17 C         140.9586  142.2892  168.2327 C.ar    1  UNL1       -0.0000
     18 C         141.3660  140.9364  168.7365 C.ar    1  UNL1       -0.0000
     19 C         141.1791  140.5873  170.1833 C.ar    1  UNL1        0.0000
     20 C         140.5848  141.5910  171.1263 C.ar    1  UNL1        0.0000
     21 C         140.1773  142.9439  170.6225 C.ar    1  UNL1        0.0000
     22 C         140.3643  143.2930  169.1757 C.ar    1  UNL1       -0.0000
     23 C         140.0357  138.4336  160.8597 C.3     1  UNL1        0.0922
     24 N         140.1319  137.9714  162.2835 N.3     1  UNL1       -0.2713
     25 C         139.0004  137.8994  163.2655 C.3     1  UNL1        0.0722
     26 C         139.5458  137.3835  164.5641 C.3     1  UNL1        0.0188
     27 C         141.0144  137.1367  164.3847 C.3     1  UNL1        0.0188
     28 C         141.3766  137.5000  162.9751 C.3     1  UNL1        0.0722
@<TRIPOS>BOND
     1     1     2    1
     2     2    10    1
     3    10    11    1
     4    11    12   ar
     5    12    13   ar
     6    13    14   ar
     7    14    17    1
     8    17    18   ar
     9    18    19   ar
    10    19    20   ar
    11    20    21   ar
    12    21    22   ar
    13    14    15   ar
    14    15    16   ar
    15     2     3   am
    16     3     4    2
    17     3     5   am
    18     5     6    1
    19     6     7    1
    20     7     8    1
    21     8     9    1
    22     9    23    1
    23    23    24    1
    24    24    25    1
    25    25    26    1
    26    26    27    1
    27    27    28    1
    28    16    11   ar
    29     9     5    1
    30    28    24    1
    31    22    17   ar
