@<TRIPOS>MOLECULE
*****
 38 44 0 0 0
SMALL
GASTEIGER

@<TRIPOS>ATOM
      1 C         139.7014  141.2654  160.8448 C.3     1  UNL1        0.1558
      2 N         140.3075  140.5048  159.7028 N.3     1  UNL1       -0.2809
      3 C         140.5501  139.0299  159.8288 C.3     1  UNL1        0.1166
      4 C         140.1866  138.3156  161.0967 C.3     1  UNL1        0.0511
      5 C         139.5804  139.0762  162.2387 C.2     1  UNL1       -0.0037
      6 C         139.3378  140.5511  162.1127 C.2     1  UNL1        0.0784
      7 N         138.7304  141.0322  163.3970 N.2     1  UNL1       -0.2519
      8 C         138.5976  139.8548  164.3168 C.2     1  UNL1        0.0627
      9 C         138.0662  139.7272  165.7136 C.3     1  UNL1        0.0717
     10 C         138.0601  138.3907  166.3946 C.2     1  UNL1       -0.0198
     11 C         138.5854  137.1818  165.6787 C.2     1  UNL1       -0.0042
     12 C         139.1169  137.3094  164.2818 C.2     1  UNL1        0.0006
     13 C         139.1229  138.6458  163.6009 C.2     1  UNL1        0.0111
     14 H         141.2111  140.9363  159.5083 H       1  UNL1        0.1245
     15 C         139.2515  145.1531  164.3893 C.3     1  UNL1        0.0978
     16 C         138.9488  144.1994  163.2719 C.ar    1  UNL1        0.2369
     17 N         139.8592  143.1221  162.7612 N.ar    1  UNL1       -0.1928
     18 C         139.1556  142.4124  161.6427 C.ar    1  UNL1        0.2023
     19 N         137.8104  143.0509  161.4620 N.ar    1  UNL1       -0.0586
     20 O         137.6826  144.1554  162.4689 O.2     1  UNL1       -0.3373
     21 C         139.8754  142.3780  159.8540 C.ar    1  UNL1        0.0423
     22 C         139.0034  142.6418  158.6623 C.ar    1  UNL1        0.1194
     23 N         139.5411  143.8491  157.9527 N.ar    1  UNL1       -0.1679
     24 N         140.7453  144.3314  158.7058 N.ar    1  UNL1       -0.2476
     25 C         141.5939  145.5150  158.3470 C.3     1  UNL1        0.1537
     26 C         140.9519  143.4222  159.8809 C.ar    1  UNL1        0.0944
     27 C         141.1563  138.2693  158.6868 C.ar    1  UNL1        0.1318
     28 N         140.4579  137.8790  157.4180 N.ar    1  UNL1       -0.2298
     29 C         141.4372  137.1339  156.5602 C.ar    1  UNL1        0.0996
     30 C         142.7408  137.0637  157.2989 C.ar    1  UNL1        0.0927
     31 N         142.5672  137.7654  158.6132 N.ar    1  UNL1       -0.3386
     32 H         143.2580  137.8758  159.3060 H       1  UNL1        0.1672
     33 C         141.1613  136.5598  155.2021 C.ar    1  UNL1        0.0192
     34 C         139.9412  136.9867  154.4412 C.ar    1  UNL1        0.0015
     35 C         139.6653  136.4127  153.0831 C.ar    1  UNL1        0.0000
     36 C         140.6095  135.4118  152.4860 C.ar    1  UNL1        0.0000
     37 C         141.8296  134.9849  153.2469 C.ar    1  UNL1        0.0000
     38 C         142.1056  135.5590  154.6050 C.ar    1  UNL1        0.0015
@<TRIPOS>BOND
     1    15    16    1
     2    16    17   ar
     3    17    18   ar
     4     1    18    1
     5     1    21    1
     6    21    22   ar
     7    22    23   ar
     8    23    24   ar
     9    24    25    1
    10    24    26   ar
    11     1     2    1
    12     2     3    1
    13     3    27    1
    14    27    28   ar
    15    28    29   ar
    16    29    33    1
    17    33    34   ar
    18    34    35   ar
    19    35    36   ar
    20    36    37   ar
    21    37    38   ar
    22    29    30   ar
    23    30    31   ar
    24     3     4    1
    25     4     5    1
    26     5     6    2
    27     6     7    1
    28     7     8    2
    29     8     9    1
    30     9    10    1
    31    10    11    2
    32    11    12    1
    33    12    13    2
    34    18    19   ar
    35    19    20   ar
    36    20    16   ar
    37     6     1    1
    38    13     8    1
    39    26    21   ar
    40    31    27   ar
    41    13     5    1
    42    38    33   ar
    43     2    14    1
    44    31    32    1
@<TRIPOS>MOLECULE
*****
 38 44 0 0 0
SMALL
GASTEIGER

@<TRIPOS>ATOM
      1 C         140.7664  141.1603  159.8561 C.3     1  UNL1        0.1558
      2 N         141.1018  140.0866  158.8638 N.3     1  UNL1       -0.2809
      3 C         142.4161  139.3689  158.9509 C.3     1  UNL1        0.1166
      4 C         143.3950  139.7251  160.0302 C.3     1  UNL1        0.0511
      5 C         143.0597  140.7988  161.0224 C.2     1  UNL1       -0.0037
      6 C         141.7454  141.5164  160.9354 C.2     1  UNL1        0.0784
      7 N         141.6926  142.5233  162.0460 N.2     1  UNL1       -0.2519
      8 C         142.9743  142.4280  162.8194 C.2     1  UNL1        0.0627
      9 C         143.4812  143.1739  164.0179 C.3     1  UNL1        0.0717
     10 C         144.8330  142.8541  164.5838 C.2     1  UNL1       -0.0198
     11 C         145.6779  141.7883  163.9512 C.2     1  UNL1       -0.0042
     12 C         145.1710  141.0423  162.7527 C.2     1  UNL1        0.0006
     13 C         143.8192  141.3622  162.1868 C.2     1  UNL1        0.0111
     14 H         141.0617  140.5166  157.9398 H       1  UNL1        0.1245
     15 C         137.5526  143.6660  163.2137 C.3     1  UNL1        0.0978
     16 C         138.5213  143.3925  162.1016 C.ar    1  UNL1        0.2369
     17 N         139.0690  142.0492  161.7198 N.ar    1  UNL1       -0.1928
     18 C         139.9984  142.2407  160.5583 C.ar    1  UNL1        0.2023
     19 N         140.0252  143.7023  160.2220 N.ar    1  UNL1       -0.0586
     20 O         139.1123  144.4141  161.1759 O.2     1  UNL1       -0.3373
     21 C         139.5207  141.1794  159.0207 C.ar    1  UNL1        0.0423
     22 C         138.4016  140.1826  159.0835 C.ar    1  UNL1        0.1194
     23 N         137.3647  140.5859  158.0774 N.ar    1  UNL1       -0.1679
     24 N         137.8429  141.8319  157.3928 N.ar    1  UNL1       -0.2476
     25 C         137.1163  142.5797  156.3146 C.3     1  UNL1        0.1537
     26 C         139.1755  142.1987  157.9758 C.ar    1  UNL1        0.0944
     27 C         142.7515  138.2951  157.9586 C.ar    1  UNL1        0.1318
     28 N         142.3207  136.8603  158.0330 N.ar    1  UNL1       -0.2298
     29 C         142.8796  136.1461  156.8381 C.ar    1  UNL1        0.0996
     30 C         143.6556  137.1395  156.0253 C.ar    1  UNL1        0.0927
     31 N         143.5765  138.4678  156.7178 N.ar    1  UNL1       -0.3386
     32 H         143.9929  139.3057  156.4117 H       1  UNL1        0.1672
     33 C         142.6947  134.6934  156.5132 C.ar    1  UNL1        0.0192
     34 C         143.4820  133.6531  157.2535 C.ar    1  UNL1        0.0015
     35 C         143.2972  132.2005  156.9286 C.ar    1  UNL1        0.0000
     36 C         142.3250  131.7881  155.8633 C.ar    1  UNL1        0.0000
     37 C         141.5377  132.8283  155.1230 C.ar    1  UNL1        0.0000
     38 C         141.7225  134.2809  155.4479 C.ar    1  UNL1        0.0015
@<TRIPOS>BOND
     1    15    16    1
     2    16    17   ar
     3    17    18   ar
     4     1    18    1
     5     1    21    1
     6    21    22   ar
     7    22    23   ar
     8    23    24   ar
     9    24    25    1
    10    24    26   ar
    11     1     2    1
    12     2     3    1
    13     3    27    1
    14    27    28   ar
    15    28    29   ar
    16    29    33    1
    17    33    34   ar
    18    34    35   ar
    19    35    36   ar
    20    36    37   ar
    21    37    38   ar
    22    29    30   ar
    23    30    31   ar
    24     3     4    1
    25     4     5    1
    26     5     6    2
    27     6     7    1
    28     7     8    2
    29     8     9    1
    30     9    10    1
    31    10    11    2
    32    11    12    1
    33    12    13    2
    34    18    19   ar
    35    19    20   ar
    36    20    16   ar
    37     6     1    1
    38    13     8    1
    39    26    21   ar
    40    31    27   ar
    41    13     5    1
    42    38    33   ar
    43     2    14    1
    44    31    32    1
@<TRIPOS>MOLECULE
*****
 38 44 0 0 0
SMALL
GASTEIGER

@<TRIPOS>ATOM
      1 C         142.5097  139.7960  159.6434 C.3     1  UNL1        0.1558
      2 N         143.1928  140.2672  158.3939 N.3     1  UNL1       -0.2809
      3 C         144.0913  141.4675  158.4375 C.3     1  UNL1        0.1166
      4 C         144.3068  142.1966  159.7306 C.3     1  UNL1        0.0511
      5 C         143.6237  141.7253  160.9801 C.2     1  UNL1       -0.0037
      6 C         142.7251  140.5250  160.9365 C.2     1  UNL1        0.0784
      7 N         142.1907  140.2957  162.3192 N.2     1  UNL1       -0.2519
      8 C         142.7589  141.3543  163.2173 C.2     1  UNL1        0.0627
      9 C         142.5843  141.6278  164.6817 C.3     1  UNL1        0.0717
     10 C         143.2953  142.7849  165.3186 C.2     1  UNL1       -0.0198
     11 C         144.1809  143.6684  164.4909 C.2     1  UNL1       -0.0042
     12 C         144.3556  143.3949  163.0265 C.2     1  UNL1        0.0006
     13 C         143.6445  142.2379  162.3897 C.2     1  UNL1        0.0111
     14 H         142.4584  140.4735  157.7168 H       1  UNL1        0.1245
     15 C         138.3590  138.0206  162.3820 C.3     1  UNL1        0.0978
     16 C         139.7400  138.1561  161.8125 C.ar    1  UNL1        0.2369
     17 N         140.2002  139.2187  160.8590 N.ar    1  UNL1       -0.1928
     18 C         141.6478  138.9722  160.5537 C.ar    1  UNL1        0.2023
     19 N         142.0825  137.7572  161.3185 N.ar    1  UNL1       -0.0586
     20 O         140.9034  137.2528  162.0964 O.2     1  UNL1       -0.3373
     21 C         141.9950  138.7808  158.6665 C.ar    1  UNL1        0.0423
     22 C         140.6210  138.7533  158.0653 C.ar    1  UNL1        0.1194
     23 N         140.5407  137.5703  157.1464 N.ar    1  UNL1       -0.1679
     24 N         141.8650  136.8667  157.1798 N.ar    1  UNL1       -0.2476
     25 C         142.2270  135.6319  156.4091 C.3     1  UNL1        0.1537
     26 C         142.7638  137.6148  158.1192 C.ar    1  UNL1        0.0944
     27 C         144.7745  141.9388  157.1879 C.ar    1  UNL1        0.1318
     28 N         146.2448  141.8570  156.9026 N.ar    1  UNL1       -0.2298
     29 C         146.4863  142.4423  155.5428 C.ar    1  UNL1        0.0996
     30 C         145.1652  142.8856  154.9877 C.ar    1  UNL1        0.0927
     31 N         144.1073  142.5745  156.0044 N.ar    1  UNL1       -0.3386
     32 H         143.1441  142.7556  155.9114 H       1  UNL1        0.1672
     33 C         147.8156  142.5629  154.8582 C.ar    1  UNL1        0.0192
     34 C         148.9878  141.7672  155.3508 C.ar    1  UNL1        0.0015
     35 C         150.3170  141.8878  154.6663 C.ar    1  UNL1        0.0000
     36 C         150.4740  142.8041  153.4892 C.ar    1  UNL1        0.0000
     37 C         149.3018  143.5998  152.9965 C.ar    1  UNL1        0.0000
     38 C         147.9725  143.4792  153.6810 C.ar    1  UNL1        0.0015
@<TRIPOS>BOND
     1    15    16    1
     2    16    17   ar
     3    17    18   ar
     4     1    18    1
     5     1    21    1
     6    21    22   ar
     7    22    23   ar
     8    23    24   ar
     9    24    25    1
    10    24    26   ar
    11     1     2    1
    12     2     3    1
    13     3    27    1
    14    27    28   ar
    15    28    29   ar
    16    29    33    1
    17    33    34   ar
    18    34    35   ar
    19    35    36   ar
    20    36    37   ar
    21    37    38   ar
    22    29    30   ar
    23    30    31   ar
    24     3     4    1
    25     4     5    1
    26     5     6    2
    27     6     7    1
    28     7     8    2
    29     8     9    1
    30     9    10    1
    31    10    11    2
    32    11    12    1
    33    12    13    2
    34    18    19   ar
    35    19    20   ar
    36    20    16   ar
    37     6     1    1
    38    13     8    1
    39    26    21   ar
    40    31    27   ar
    41    13     5    1
    42    38    33   ar
    43     2    14    1
    44    31    32    1
@<TRIPOS>MOLECULE
*****
 38 44 0 0 0
SMALL
GASTEIGER

@<TRIPOS>ATOM
      1 C         141.5735  142.0298  161.7347 C.3     1  UNL1        0.1558
      2 N         141.8058  141.2880  160.4518 N.3     1  UNL1       -0.2809
      3 C         142.3697  139.8983  160.4806 C.3     1  UNL1        0.1166
      4 C         142.7013  139.2505  161.7923 C.3     1  UNL1        0.0511
      5 C         142.4690  139.9923  163.0751 C.2     1  UNL1       -0.0037
      6 C         141.9051  141.3820  163.0463 C.2     1  UNL1        0.0784
      7 N         141.7854  141.8630  164.4620 N.2     1  UNL1       -0.2519
      8 C         142.2753  140.7706  165.3658 C.2     1  UNL1        0.0627
      9 C         142.3912  140.6794  166.8585 C.3     1  UNL1        0.0717
     10 C         142.9297  139.4319  167.4940 C.2     1  UNL1       -0.0198
     11 C         143.3522  138.2758  166.6368 C.2     1  UNL1       -0.0042
     12 C         143.2362  138.3670  165.1441 C.2     1  UNL1        0.0006
     13 C         142.6978  139.6145  164.5086 C.2     1  UNL1        0.0111
     14 H         142.4467  141.8544  159.8961 H       1  UNL1        0.1245
     15 C         138.8298  144.9596  165.1652 C.3     1  UNL1        0.0978
     16 C         139.9173  144.4760  164.2524 C.ar    1  UNL1        0.2369
     17 N         139.8893  143.2170  163.4373 N.ar    1  UNL1       -0.1928
     18 C         141.1784  143.1293  162.6755 C.ar    1  UNL1        0.2023
     19 N         142.0032  144.3339  163.0197 N.ar    1  UNL1       -0.0586
     20 O         141.2237  145.1663  163.9942 O.2     1  UNL1       -0.3373
     21 C         141.1047  143.0595  160.7498 C.ar    1  UNL1        0.0423
     22 C         139.6775  143.4268  160.4704 C.ar    1  UNL1        0.1194
     23 N         139.6716  144.4970  159.4193 N.ar    1  UNL1       -0.1679
     24 N         141.0951  144.7911  159.0491 N.ar    1  UNL1       -0.2476
     25 C         141.5525  145.7969  158.0348 C.3     1  UNL1        0.1537
     26 C         141.9808  143.9026  159.8714 C.ar    1  UNL1        0.0944
     27 C         142.6021  139.1564  159.1977 C.ar    1  UNL1        0.1318
     28 N         142.2586  137.7201  158.9354 N.ar    1  UNL1       -0.2298
     29 C         142.6629  137.3966  157.5275 C.ar    1  UNL1        0.0996
     30 C         143.2562  138.6330  156.9199 C.ar    1  UNL1        0.0927
     31 N         143.2186  139.7207  157.9522 N.ar    1  UNL1       -0.3386
     32 H         143.5418  140.6429  157.8330 H       1  UNL1        0.1672
     33 C         142.5021  136.0695  156.8469 C.ar    1  UNL1        0.0192
     34 C         143.3519  134.9055  157.2628 C.ar    1  UNL1        0.0015
     35 C         143.1911  133.5785  156.5822 C.ar    1  UNL1        0.0000
     36 C         142.1806  133.4156  155.4857 C.ar    1  UNL1        0.0000
     37 C         141.3308  134.5796  155.0698 C.ar    1  UNL1        0.0000
     38 C         141.4916  135.9066  155.7504 C.ar    1  UNL1        0.0015
@<TRIPOS>BOND
     1    15    16    1
     2    16    17   ar
     3    17    18   ar
     4     1    18    1
     5     1    21    1
     6    21    22   ar
     7    22    23   ar
     8    23    24   ar
     9    24    25    1
    10    24    26   ar
    11     1     2    1
    12     2     3    1
    13     3    27    1
    14    27    28   ar
    15    28    29   ar
    16    29    33    1
    17    33    34   ar
    18    34    35   ar
    19    35    36   ar
    20    36    37   ar
    21    37    38   ar
    22    29    30   ar
    23    30    31   ar
    24     3     4    1
    25     4     5    1
    26     5     6    2
    27     6     7    1
    28     7     8    2
    29     8     9    1
    30     9    10    1
    31    10    11    2
    32    11    12    1
    33    12    13    2
    34    18    19   ar
    35    19    20   ar
    36    20    16   ar
    37     6     1    1
    38    13     8    1
    39    26    21   ar
    40    31    27   ar
    41    13     5    1
    42    38    33   ar
    43     2    14    1
    44    31    32    1
@<TRIPOS>MOLECULE
*****
 38 44 0 0 0
SMALL
GASTEIGER

@<TRIPOS>ATOM
      1 C         142.4567  142.6387  160.1343 C.3     1  UNL1        0.1558
      2 N         141.9250  143.2679  158.8808 N.3     1  UNL1       -0.2809
      3 C         140.7423  144.1883  158.9470 C.3     1  UNL1        0.1166
      4 C         140.0914  144.4794  160.2667 C.3     1  UNL1        0.0511
      5 C         140.6231  143.8501  161.5202 C.2     1  UNL1       -0.0037
      6 C         141.8058  142.9298  161.4540 C.2     1  UNL1        0.0784
      7 N         142.1058  142.4598  162.8465 N.2     1  UNL1       -0.2519
      8 C         141.1086  143.0896  163.7733 C.2     1  UNL1        0.0627
      9 C         140.9165  142.9916  165.2577 C.3     1  UNL1        0.0717
     10 C         139.8082  143.7530  165.9224 C.2     1  UNL1       -0.0198
     11 C         138.8919  144.6123  165.1027 C.2     1  UNL1       -0.0042
     12 C         139.0839  144.7102  163.6183 C.2     1  UNL1        0.0006
     13 C         140.1922  143.9489  162.9536 C.2     1  UNL1        0.0111
     14 H         141.6696  142.5050  158.2538 H       1  UNL1        0.1245
     15 C         144.1885  138.7048  163.2011 C.3     1  UNL1        0.0978
     16 C         144.1145  140.0000  162.4483 C.ar    1  UNL1        0.2369
     17 N         142.9673  140.4621  161.5994 N.ar    1  UNL1       -0.1928
     18 C         143.3184  141.8082  161.0387 C.ar    1  UNL1        0.2023
     19 N         144.6825  142.1782  161.5409 N.ar    1  UNL1       -0.0586
     20 O         145.1745  141.0606  162.4122 O.2     1  UNL1       -0.3373
     21 C         143.4068  142.0592  159.1287 C.ar    1  UNL1        0.0423
     22 C         143.4218  140.6390  158.6462 C.ar    1  UNL1        0.1194
     23 N         144.5332  140.5002  157.6483 N.ar    1  UNL1       -0.1679
     24 N         145.2050  141.8346  157.5141 N.ar    1  UNL1       -0.2476
     25 C         146.3685  142.1501  156.6216 C.3     1  UNL1        0.1537
     26 C         144.5089  142.7981  158.4290 C.ar    1  UNL1        0.0944
     27 C         140.2106  144.8176  157.6934 C.ar    1  UNL1        0.1318
     28 N         140.4170  146.2402  157.2651 N.ar    1  UNL1       -0.2298
     29 C         139.7130  146.4366  155.9551 C.ar    1  UNL1        0.0996
     30 C         139.0716  145.1353  155.5740 C.ar    1  UNL1        0.0927
     31 N         139.3791  144.1347  156.6483 N.ar    1  UNL1       -0.3386
     32 H         139.0866  143.1948  156.6646 H       1  UNL1        0.1672
     33 C         139.6599  147.7106  155.1651 C.ar    1  UNL1        0.0192
     34 C         140.3256  147.7892  153.8232 C.ar    1  UNL1        0.0015
     35 C         140.2724  149.0632  153.0332 C.ar    1  UNL1        0.0000
     36 C         139.5536  150.2584  153.5850 C.ar    1  UNL1        0.0000
     37 C         138.8880  150.1798  154.9269 C.ar    1  UNL1        0.0000
     38 C         138.9411  148.9059  155.7169 C.ar    1  UNL1        0.0015
@<TRIPOS>BOND
     1    15    16    1
     2    16    17   ar
     3    17    18   ar
     4     1    18    1
     5     1    21    1
     6    21    22   ar
     7    22    23   ar
     8    23    24   ar
     9    24    25    1
    10    24    26   ar
    11     1     2    1
    12     2     3    1
    13     3    27    1
    14    27    28   ar
    15    28    29   ar
    16    29    33    1
    17    33    34   ar
    18    34    35   ar
    19    35    36   ar
    20    36    37   ar
    21    37    38   ar
    22    29    30   ar
    23    30    31   ar
    24     3     4    1
    25     4     5    1
    26     5     6    2
    27     6     7    1
    28     7     8    2
    29     8     9    1
    30     9    10    1
    31    10    11    2
    32    11    12    1
    33    12    13    2
    34    18    19   ar
    35    19    20   ar
    36    20    16   ar
    37     6     1    1
    38    13     8    1
    39    26    21   ar
    40    31    27   ar
    41    13     5    1
    42    38    33   ar
    43     2    14    1
    44    31    32    1
@<TRIPOS>MOLECULE
*****
 38 44 0 0 0
SMALL
GASTEIGER

@<TRIPOS>ATOM
      1 C         140.0074  141.7737  161.0864 C.3     1  UNL1        0.1558
      2 N         140.7356  141.1577  159.9287 N.3     1  UNL1       -0.2809
      3 C         141.0464  139.6903  159.9334 C.3     1  UNL1        0.1166
      4 C         140.6291  138.8389  161.0957 C.3     1  UNL1        0.0511
      5 C         139.9010  139.4549  162.2534 C.2     1  UNL1       -0.0037
      6 C         139.5901  140.9223  162.2488 C.2     1  UNL1        0.0784
      7 N         138.8651  141.2465  163.5213 N.2     1  UNL1       -0.2519
      8 C         138.7279  139.9794  164.3123 C.2     1  UNL1        0.0627
      9 C         138.1027  139.6909  165.6449 C.3     1  UNL1        0.0717
     10 C         138.1176  138.2951  166.1939 C.2     1  UNL1       -0.0198
     11 C         138.7579  137.1878  165.4103 C.2     1  UNL1       -0.0042
     12 C         139.3831  137.4763  164.0777 C.2     1  UNL1        0.0006
     13 C         139.3681  138.8721  163.5287 C.2     1  UNL1        0.0111
     14 H         141.6267  141.6472  159.8473 H       1  UNL1        0.1245
     15 C         139.0053  145.1312  165.0365 C.3     1  UNL1        0.0978
     16 C         138.8835  144.3538  163.7596 C.ar    1  UNL1        0.2369
     17 N         139.8604  143.3355  163.2507 N.ar    1  UNL1       -0.1928
     18 C         139.3442  142.8105  161.9440 C.ar    1  UNL1        0.2023
     19 N         138.0482  143.5040  161.6452 N.ar    1  UNL1       -0.0586
     20 O         137.7635  144.4579  162.7673 O.2     1  UNL1       -0.3373
     21 C         140.1944  142.9852  160.2220 C.ar    1  UNL1        0.0423
     22 C         140.9971  144.2030  160.5723 C.ar    1  UNL1        0.1194
     23 N         140.9102  145.1620  159.4221 N.ar    1  UNL1       -0.1679
     24 N         140.0539  144.5370  158.3610 N.ar    1  UNL1       -0.2476
     25 C         139.7018  145.1496  157.0380 C.3     1  UNL1        0.1537
     26 C         139.6114  143.1916  158.8553 C.ar    1  UNL1        0.0944
     27 C         141.7746  139.0742  158.7756 C.ar    1  UNL1        0.1318
     28 N         141.6246  137.6630  158.2900 N.ar    1  UNL1       -0.2298
     29 C         142.5378  137.4778  157.1145 C.ar    1  UNL1        0.0996
     30 C         143.2523  138.7745  156.8738 C.ar    1  UNL1        0.0927
     31 N         142.7806  139.7612  157.9004 N.ar    1  UNL1       -0.3386
     32 H         143.0788  140.6956  157.9849 H       1  UNL1        0.1672
     33 C         142.7070  136.2171  156.3194 C.ar    1  UNL1        0.0192
     34 C         142.3966  136.2086  154.8519 C.ar    1  UNL1        0.0015
     35 C         142.5657  134.9480  154.0568 C.ar    1  UNL1        0.0000
     36 C         143.0451  133.6958  154.7292 C.ar    1  UNL1        0.0000
     37 C         143.3555  133.7043  156.1968 C.ar    1  UNL1        0.0000
     38 C         143.1864  134.9649  156.9918 C.ar    1  UNL1        0.0015
@<TRIPOS>BOND
     1    15    16    1
     2    16    17   ar
     3    17    18   ar
     4     1    18    1
     5     1    21    1
     6    21    22   ar
     7    22    23   ar
     8    23    24   ar
     9    24    25    1
    10    24    26   ar
    11     1     2    1
    12     2     3    1
    13     3    27    1
    14    27    28   ar
    15    28    29   ar
    16    29    33    1
    17    33    34   ar
    18    34    35   ar
    19    35    36   ar
    20    36    37   ar
    21    37    38   ar
    22    29    30   ar
    23    30    31   ar
    24     3     4    1
    25     4     5    1
    26     5     6    2
    27     6     7    1
    28     7     8    2
    29     8     9    1
    30     9    10    1
    31    10    11    2
    32    11    12    1
    33    12    13    2
    34    18    19   ar
    35    19    20   ar
    36    20    16   ar
    37     6     1    1
    38    13     8    1
    39    26    21   ar
    40    31    27   ar
    41    13     5    1
    42    38    33   ar
    43     2    14    1
    44    31    32    1
@<TRIPOS>MOLECULE
*****
 38 44 0 0 0
SMALL
GASTEIGER

@<TRIPOS>ATOM
      1 C         141.8444  142.1056  160.1738 C.3     1  UNL1        0.1558
      2 N         141.0859  141.6318  158.9697 N.3     1  UNL1       -0.2809
      3 C         139.5879  141.7074  158.9493 C.3     1  UNL1        0.1166
      4 C         138.8485  142.2569  160.1331 C.3     1  UNL1        0.0511
      5 C         139.6071  142.7308  161.3373 C.2     1  UNL1       -0.0037
      6 C         141.1050  142.6551  161.3576 C.2     1  UNL1        0.0784
      7 N         141.5784  143.1937  162.6752 N.2     1  UNL1       -0.2519
      8 C         140.3730  143.6021  163.4691 C.2     1  UNL1        0.0627
      9 C         140.2275  144.1976  164.8381 C.3     1  UNL1        0.0717
     10 C         138.8635  144.5070  165.3802 C.2     1  UNL1       -0.0198
     11 C         137.6452  144.2209  164.5533 C.2     1  UNL1       -0.0042
     12 C         137.7907  143.6254  163.1843 C.2     1  UNL1        0.0006
     13 C         139.1547  143.3160  162.6422 C.2     1  UNL1        0.0111
     14 H         141.3331  140.6517  158.8328 H       1  UNL1        0.1245
     15 C         145.8118  141.6127  163.6231 C.3     1  UNL1        0.0978
     16 C         144.8226  142.2010  162.6611 C.ar    1  UNL1        0.2369
     17 N         143.7535  141.4486  161.9255 N.ar    1  UNL1       -0.1928
     18 C         142.9990  142.4275  161.0757 C.ar    1  UNL1        0.2023
     19 N         143.6017  143.7849  161.2860 N.ar    1  UNL1       -0.0586
     20 O         144.7287  143.6449  162.2659 O.2     1  UNL1       -0.3373
     21 C         142.9848  141.6680  159.3033 C.ar    1  UNL1        0.0423
     22 C         143.3932  140.2504  159.0318 C.ar    1  UNL1        0.1194
     23 N         144.5779  140.2774  158.1120 N.ar    1  UNL1       -0.1679
     24 N         144.9016  141.7116  157.8151 N.ar    1  UNL1       -0.2476
     25 C         146.0145  142.2005  156.9363 C.3     1  UNL1        0.1537
     26 C         143.9171  142.5710  158.5513 C.ar    1  UNL1        0.0944
     27 C         138.8293  141.2336  157.7451 C.ar    1  UNL1        0.1318
     28 N         137.4985  141.7485  157.2826 N.ar    1  UNL1       -0.2298
     29 C         137.1150  140.9948  156.0437 C.ar    1  UNL1        0.0996
     30 C         138.2088  140.0141  155.7405 C.ar    1  UNL1        0.0927
     31 N         139.2683  140.1617  156.7920 N.ar    1  UNL1       -0.3386
     32 H         140.1049  139.6456  156.8470 H       1  UNL1        0.1672
     33 C         135.8584  141.1880  155.2477 C.ar    1  UNL1        0.0192
     34 C         134.5219  140.9551  155.8878 C.ar    1  UNL1        0.0015
     35 C         133.2653  141.1482  155.0919 C.ar    1  UNL1        0.0000
     36 C         133.3451  141.5742  153.6559 C.ar    1  UNL1        0.0000
     37 C         134.6815  141.8071  153.0158 C.ar    1  UNL1        0.0000
     38 C         135.9382  141.6140  153.8117 C.ar    1  UNL1        0.0015
@<TRIPOS>BOND
     1    15    16    1
     2    16    17   ar
     3    17    18   ar
     4     1    18    1
     5     1    21    1
     6    21    22   ar
     7    22    23   ar
     8    23    24   ar
     9    24    25    1
    10    24    26   ar
    11     1     2    1
    12     2     3    1
    13     3    27    1
    14    27    28   ar
    15    28    29   ar
    16    29    33    1
    17    33    34   ar
    18    34    35   ar
    19    35    36   ar
    20    36    37   ar
    21    37    38   ar
    22    29    30   ar
    23    30    31   ar
    24     3     4    1
    25     4     5    1
    26     5     6    2
    27     6     7    1
    28     7     8    2
    29     8     9    1
    30     9    10    1
    31    10    11    2
    32    11    12    1
    33    12    13    2
    34    18    19   ar
    35    19    20   ar
    36    20    16   ar
    37     6     1    1
    38    13     8    1
    39    26    21   ar
    40    31    27   ar
    41    13     5    1
    42    38    33   ar
    43     2    14    1
    44    31    32    1
@<TRIPOS>MOLECULE
*****
 38 44 0 0 0
SMALL
GASTEIGER

@<TRIPOS>ATOM
      1 C         141.6480  141.6402  160.5510 C.3     1  UNL1        0.1558
      2 N         141.3365  142.3171  159.2492 N.3     1  UNL1       -0.2809
      3 C         140.4772  143.5464  159.2298 C.3     1  UNL1        0.1166
      4 C         139.9294  144.0988  160.5123 C.3     1  UNL1        0.0511
      5 C         140.2409  143.4220  161.8142 C.2     1  UNL1       -0.0037
      6 C         141.1002  142.1927  161.8335 C.2     1  UNL1        0.0784
      7 N         141.2360  141.7445  163.2585 N.2     1  UNL1       -0.2519
      8 C         140.4606  142.6968  164.1199 C.2     1  UNL1        0.0627
      9 C         140.2351  142.7538  165.6017 C.3     1  UNL1        0.0717
     10 C         139.3946  143.8476  166.1908 C.2     1  UNL1       -0.0198
     11 C         138.7796  144.8843  165.2982 C.2     1  UNL1       -0.0042
     12 C         139.0051  144.8273  163.8163 C.2     1  UNL1        0.0006
     13 C         139.8456  143.7335  163.2272 C.2     1  UNL1        0.0111
     14 H         140.8732  141.6246  158.6608 H       1  UNL1        0.1245
     15 C         144.8215  139.3293  164.0822 C.3     1  UNL1        0.0978
     16 C         143.6772  139.5901  163.1481 C.ar    1  UNL1        0.2369
     17 N         143.4936  140.8127  162.2986 N.ar    1  UNL1       -0.1928
     18 C         142.2186  140.6523  161.5250 C.ar    1  UNL1        0.2023
     19 N         141.6142  139.3307  161.8963 N.ar    1  UNL1       -0.0586
     20 O         142.5157  138.6742  162.8994 O.2     1  UNL1       -0.3373
     21 C         142.3940  140.7447  159.6068 C.ar    1  UNL1        0.0423
     22 C         143.8097  140.9314  159.1476 C.ar    1  UNL1        0.1194
     23 N         144.1459  139.8072  158.2130 N.ar    1  UNL1       -0.1679
     24 N         142.9379  138.9259  158.0946 N.ar    1  UNL1       -0.2476
     25 C         142.8314  137.6834  157.2612 C.3     1  UNL1        0.1537
     26 C         141.8552  139.5053  158.9560 C.ar    1  UNL1        0.0944
     27 C         140.1657  144.2233  157.9279 C.ar    1  UNL1        0.1318
     28 N         140.1153  145.7041  157.6942 N.ar    1  UNL1       -0.2298
     29 C         139.7683  145.9343  156.2531 C.ar    1  UNL1        0.0996
     30 C         139.6042  144.5957  155.5963 C.ar    1  UNL1        0.0927
     31 N         139.8498  143.5383  156.6315 N.ar    1  UNL1       -0.3386
     32 H         139.8105  142.5655  156.4855 H       1  UNL1        0.1672
     33 C         139.6128  147.2688  155.5859 C.ar    1  UNL1        0.0192
     34 C         138.8440  148.3623  156.2664 C.ar    1  UNL1        0.0015
     35 C         138.6884  149.6968  155.5993 C.ar    1  UNL1        0.0000
     36 C         139.3017  149.9376  154.2518 C.ar    1  UNL1        0.0000
     37 C         140.0705  148.8441  153.5714 C.ar    1  UNL1        0.0000
     38 C         140.2260  147.5096  154.2384 C.ar    1  UNL1        0.0015
@<TRIPOS>BOND
     1    15    16    1
     2    16    17   ar
     3    17    18   ar
     4     1    18    1
     5     1    21    1
     6    21    22   ar
     7    22    23   ar
     8    23    24   ar
     9    24    25    1
    10    24    26   ar
    11     1     2    1
    12     2     3    1
    13     3    27    1
    14    27    28   ar
    15    28    29   ar
    16    29    33    1
    17    33    34   ar
    18    34    35   ar
    19    35    36   ar
    20    36    37   ar
    21    37    38   ar
    22    29    30   ar
    23    30    31   ar
    24     3     4    1
    25     4     5    1
    26     5     6    2
    27     6     7    1
    28     7     8    2
    29     8     9    1
    30     9    10    1
    31    10    11    2
    32    11    12    1
    33    12    13    2
    34    18    19   ar
    35    19    20   ar
    36    20    16   ar
    37     6     1    1
    38    13     8    1
    39    26    21   ar
    40    31    27   ar
    41    13     5    1
    42    38    33   ar
    43     2    14    1
    44    31    32    1
@<TRIPOS>MOLECULE
*****
 38 44 0 0 0
SMALL
GASTEIGER

@<TRIPOS>ATOM
      1 C         140.9525  141.8414  160.8612 C.3     1  UNL1        0.1558
      2 N         140.8601  141.0443  159.5938 N.3     1  UNL1       -0.2809
      3 C         140.2761  139.6629  159.6175 C.3     1  UNL1        0.1166
      4 C         139.7846  139.0785  160.9086 C.3     1  UNL1        0.0511
      5 C         139.8770  139.8755  162.1760 C.2     1  UNL1       -0.0037
      6 C         140.4609  141.2569  162.1522 C.2     1  UNL1        0.0784
      7 N         140.4222  141.8006  163.5497 N.2     1  UNL1       -0.2519
      8 C         139.8143  140.7551  164.4371 C.2     1  UNL1        0.0627
      9 C         139.5240  140.7328  165.9086 C.3     1  UNL1        0.0717
     10 C         138.8968  139.5207  166.5310 C.2     1  UNL1       -0.0198
     11 C         138.5599  138.3310  165.6819 C.2     1  UNL1       -0.0042
     12 C         138.8501  138.3533  164.2105 C.2     1  UNL1        0.0006
     13 C         139.4773  139.5653  163.5881 C.2     1  UNL1        0.0111
     14 H         141.8095  140.9565  159.2313 H       1  UNL1        0.1245
     15 C         143.4960  145.1325  164.1137 C.3     1  UNL1        0.0978
     16 C         142.4207  144.4913  163.2876 C.ar    1  UNL1        0.2369
     17 N         142.5744  143.2632  162.4400 N.ar    1  UNL1       -0.1928
     18 C         141.2517  142.9785  161.7925 C.ar    1  UNL1        0.2023
     19 N         140.2805  144.0305  162.2398 N.ar    1  UNL1       -0.0586
     20 O         141.0031  144.9655  163.1638 O.2     1  UNL1       -0.3373
     21 C         141.5480  142.8207  159.8936 C.ar    1  UNL1        0.0423
     22 C         142.9677  142.8296  159.4095 C.ar    1  UNL1        0.1194
     23 N         143.1254  143.9776  158.4569 N.ar    1  UNL1       -0.1679
     24 N         141.8032  144.6781  158.3522 N.ar    1  UNL1       -0.2476
     25 C         141.5077  145.8821  157.5079 C.3     1  UNL1        0.1537
     26 C         140.8282  143.9631  159.2401 C.ar    1  UNL1        0.0944
     27 C         140.1837  138.8658  158.3502 C.ar    1  UNL1        0.1318
     28 N         141.1243  137.7787  157.9218 N.ar    1  UNL1       -0.2298
     29 C         140.6565  137.2569  156.5956 C.ar    1  UNL1        0.0996
     30 C         139.4267  138.0215  156.2044 C.ar    1  UNL1        0.0927
     31 N         139.1346  139.0158  157.2887 N.ar    1  UNL1       -0.3386
     32 H         138.3857  139.6548  157.3015 H       1  UNL1        0.1672
     33 C         141.3046  136.1625  155.8003 C.ar    1  UNL1        0.0192
     34 C         140.8616  135.8954  154.3924 C.ar    1  UNL1        0.0015
     35 C         141.5096  134.8011  153.5971 C.ar    1  UNL1        0.0000
     36 C         142.6007  133.9740  154.2097 C.ar    1  UNL1        0.0000
     37 C         143.0438  134.2412  155.6177 C.ar    1  UNL1        0.0000
     38 C         142.3957  135.3355  156.4130 C.ar    1  UNL1        0.0015
@<TRIPOS>BOND
     1    15    16    1
     2    16    17   ar
     3    17    18   ar
     4     1    18    1
     5     1    21    1
     6    21    22   ar
     7    22    23   ar
     8    23    24   ar
     9    24    25    1
    10    24    26   ar
    11     1     2    1
    12     2     3    1
    13     3    27    1
    14    27    28   ar
    15    28    29   ar
    16    29    33    1
    17    33    34   ar
    18    34    35   ar
    19    35    36   ar
    20    36    37   ar
    21    37    38   ar
    22    29    30   ar
    23    30    31   ar
    24     3     4    1
    25     4     5    1
    26     5     6    2
    27     6     7    1
    28     7     8    2
    29     8     9    1
    30     9    10    1
    31    10    11    2
    32    11    12    1
    33    12    13    2
    34    18    19   ar
    35    19    20   ar
    36    20    16   ar
    37     6     1    1
    38    13     8    1
    39    26    21   ar
    40    31    27   ar
    41    13     5    1
    42    38    33   ar
    43     2    14    1
    44    31    32    1
