@<TRIPOS>MOLECULE
*****
 32 34 0 0 0
SMALL
GASTEIGER

@<TRIPOS>ATOM
      1 N         139.6187  139.9814  167.7370 N.am    1  UNL1       -0.3004
      2 C         139.5362  140.2408  169.2122 C.2     1  UNL1        0.2240
      3 O         138.3051  139.8499  169.9747 O.2     1  UNL1       -0.2750
      4 H         140.4267  140.2380  167.2366 H       1  UNL1        0.1497
      5 C         140.6849  140.8911  169.9247 C.3     1  UNL1        0.0975
      6 C         140.6445  141.4899  171.2994 C.3     1  UNL1        0.0781
      7 N         142.0103  142.0257  171.6120 N.3     1  UNL1       -0.2968
      8 C         142.8948  141.7579  170.4304 C.3     1  UNL1        0.0735
      9 C         142.0756  141.0567  169.3876 C.3     1  UNL1        0.0480
     10 H         142.3848  141.5584  172.4377 H       1  UNL1        0.1233
     11 C         142.5619  140.6012  168.0438 C.ar    1  UNL1       -0.0207
     12 C         142.8660  139.1512  167.8082 C.ar    1  UNL1       -0.0043
     13 C         143.3523  138.6957  166.4644 C.ar    1  UNL1        0.0035
     14 C         143.5345  139.6899  165.3560 C.ar    1  UNL1        0.0714
     15 C         143.2303  141.1397  165.5916 C.ar    1  UNL1        0.0035
     16 C         142.7441  141.5953  166.9354 C.ar    1  UNL1       -0.0043
     17 C         144.0207  139.2343  164.0121 C.3     1  UNL1        0.4186
     18 F         144.5071  138.7788  162.6683 F       1  UNL1       -0.1659
     19 F         142.6198  139.3060  163.4809 F       1  UNL1       -0.1659
     20 F         145.4218  139.1627  164.5434 F       1  UNL1       -0.1659
     21 C         138.4700  139.3312  167.0245 C.3     1  UNL1        0.1163
     22 C         138.4528  139.0955  162.5307 C.ar    1  UNL1        0.0478
     23 C         138.8462  137.8975  163.3431 C.ar    1  UNL1        0.0142
     24 C         138.8519  137.9760  164.8410 C.ar    1  UNL1       -0.0014
     25 C         138.4643  139.2526  165.5266 C.ar    1  UNL1       -0.0025
     26 C         138.0709  140.4506  164.7142 C.ar    1  UNL1       -0.0014
     27 C         138.0652  140.3720  163.2163 C.ar    1  UNL1        0.0142
     28 N         138.4471  139.0169  161.0328 N.pl3   1  UNL1       -0.3075
     29 C         140.9184  138.5161  160.4070 C.3     1  UNL1        0.0232
     30 C         139.4612  138.1704  160.3223 C.3     1  UNL1        0.0908
     31 C         137.4272  139.7848  160.2454 C.3     1  UNL1        0.0908
     32 C         137.8311  140.4981  158.9891 C.3     1  UNL1        0.0232
@<TRIPOS>BOND
     1    29    30    1
     2    30    28    1
     3    28    31    1
     4    31    32    1
     5    28    22    1
     6    22    23   ar
     7    23    24   ar
     8    24    25   ar
     9    25    21    1
    10    21     1    1
    11     1     2   am
    12     2     3    2
    13     5     2    1
    14     5     6    1
    15     6     7    1
    16     7     8    1
    17     8     9    1
    18     9    11    1
    19    11    12   ar
    20    12    13   ar
    21    13    14   ar
    22    14    17    1
    23    17    18    1
    24    17    19    1
    25    17    20    1
    26    14    15   ar
    27    15    16   ar
    28    25    26   ar
    29    26    27   ar
    30    27    22   ar
    31     9     5    1
    32    16    11   ar
    33     1     4    1
    34     7    10    1
@<TRIPOS>MOLECULE
*****
 32 34 0 0 0
SMALL
GASTEIGER

@<TRIPOS>ATOM
      1 N         143.0219  141.6169  163.2890 N.am    1  UNL1       -0.3004
      2 C         143.8314  140.3991  162.9549 C.2     1  UNL1        0.2240
      3 O         145.0515  140.0652  163.7610 O.2     1  UNL1       -0.2750
      4 H         142.2211  141.8361  162.7600 H       1  UNL1        0.1497
      5 C         143.4206  139.5151  161.8148 C.3     1  UNL1        0.0975
      6 C         144.1676  139.3332  160.5267 C.3     1  UNL1        0.0781
      7 N         143.3995  138.3636  159.6784 N.3     1  UNL1       -0.2968
      8 C         142.1777  137.9462  160.4421 C.3     1  UNL1        0.0735
      9 C         142.1908  138.6579  161.7624 C.3     1  UNL1        0.0480
     10 H         143.9770  137.5474  159.4763 H       1  UNL1        0.1233
     11 C         141.1558  138.5341  162.8410 C.ar    1  UNL1       -0.0207
     12 C         140.0982  139.5874  162.9900 C.ar    1  UNL1       -0.0043
     13 C         139.0632  139.4636  164.0686 C.ar    1  UNL1        0.0035
     14 C         139.0856  138.2866  164.9982 C.ar    1  UNL1        0.0714
     15 C         140.1432  137.2334  164.8492 C.ar    1  UNL1        0.0035
     16 C         141.1782  137.3572  163.7706 C.ar    1  UNL1       -0.0043
     17 C         138.0506  138.1628  166.0768 C.3     1  UNL1        0.4186
     18 F         137.0156  138.0391  167.1554 F       1  UNL1       -0.1659
     19 F         138.1816  136.6692  166.0310 F       1  UNL1       -0.1659
     20 F         137.9197  139.6565  166.1225 F       1  UNL1       -0.1659
     21 C         143.4326  142.5009  164.4292 C.3     1  UNL1        0.1163
     22 C         141.7086  141.8292  168.5312 C.ar    1  UNL1        0.0478
     23 C         143.1020  142.3641  168.3816 C.ar    1  UNL1        0.0142
     24 C         143.6766  142.5880  167.0143 C.ar    1  UNL1       -0.0014
     25 C         142.8580  142.2770  165.7965 C.ar    1  UNL1       -0.0025
     26 C         141.4646  141.7421  165.9461 C.ar    1  UNL1       -0.0014
     27 C         140.8900  141.5182  167.3134 C.ar    1  UNL1        0.0142
     28 N         141.1340  141.6053  169.8985 N.pl3   1  UNL1       -0.3075
     29 C         140.3391  144.0766  170.0021 C.3     1  UNL1        0.0232
     30 C         140.3274  142.6838  170.5589 C.3     1  UNL1        0.0908
     31 C         141.3659  140.3029  170.6055 C.3     1  UNL1        0.0908
     32 C         142.2155  139.2440  169.9675 C.3     1  UNL1        0.0232
@<TRIPOS>BOND
     1    29    30    1
     2    30    28    1
     3    28    31    1
     4    31    32    1
     5    28    22    1
     6    22    23   ar
     7    23    24   ar
     8    24    25   ar
     9    25    21    1
    10    21     1    1
    11     1     2   am
    12     2     3    2
    13     5     2    1
    14     5     6    1
    15     6     7    1
    16     7     8    1
    17     8     9    1
    18     9    11    1
    19    11    12   ar
    20    12    13   ar
    21    13    14   ar
    22    14    17    1
    23    17    18    1
    24    17    19    1
    25    17    20    1
    26    14    15   ar
    27    15    16   ar
    28    25    26   ar
    29    26    27   ar
    30    27    22   ar
    31     9     5    1
    32    16    11   ar
    33     1     4    1
    34     7    10    1
@<TRIPOS>MOLECULE
*****
 32 34 0 0 0
SMALL
GASTEIGER

@<TRIPOS>ATOM
      1 N         139.6508  139.9624  167.9646 N.am    1  UNL1       -0.3004
      2 C         139.4723  140.3654  169.3983 C.2     1  UNL1        0.2240
      3 O         138.2254  139.9781  170.1366 O.2     1  UNL1       -0.2750
      4 H         140.4693  140.2166  167.4800 H       1  UNL1        0.1497
      5 C         140.5408  141.1558  170.0938 C.3     1  UNL1        0.0975
      6 C         140.8250  141.1489  171.5666 C.3     1  UNL1        0.0781
      7 N         141.9724  142.0807  171.8217 N.3     1  UNL1       -0.2968
      8 C         142.3974  142.6636  170.5065 C.3     1  UNL1        0.0735
      9 C         141.5125  142.0920  169.4386 C.3     1  UNL1        0.0480
     10 H         142.7485  141.5677  172.2400 H       1  UNL1        0.1233
     11 C         141.5866  142.4021  167.9729 C.ar    1  UNL1       -0.0207
     12 C         142.8530  142.1381  167.2135 C.ar    1  UNL1       -0.0043
     13 C         142.9270  142.4482  165.7478 C.ar    1  UNL1        0.0035
     14 C         141.7347  143.0223  165.0414 C.ar    1  UNL1        0.0714
     15 C         140.4684  143.2863  165.8009 C.ar    1  UNL1        0.0035
     16 C         140.3944  142.9762  167.2666 C.ar    1  UNL1       -0.0043
     17 C         141.8087  143.3324  163.5757 C.3     1  UNL1        0.4186
     18 F         141.8828  143.6426  162.1100 F       1  UNL1       -0.1659
     19 F         141.3222  141.9494  163.2585 F       1  UNL1       -0.1659
     20 F         142.2952  144.7155  163.8929 F       1  UNL1       -0.1659
     21 C         138.5825  139.1720  167.2690 C.3     1  UNL1        0.1163
     22 C         138.4772  139.0000  162.7736 C.ar    1  UNL1        0.0478
     23 C         138.1347  140.2761  163.4835 C.ar    1  UNL1        0.0142
     24 C         138.1698  140.3335  164.9820 C.ar    1  UNL1       -0.0014
     25 C         138.5474  139.1146  165.7705 C.ar    1  UNL1       -0.0025
     26 C         138.8899  137.8385  165.0606 C.ar    1  UNL1       -0.0014
     27 C         138.8548  137.7812  163.5621 C.ar    1  UNL1        0.0142
     28 N         138.4421  138.9427  161.2751 N.pl3   1  UNL1       -0.3075
     29 C         140.8902  138.4953  160.5290 C.3     1  UNL1        0.0232
     30 C         139.4416  138.1060  160.5329 C.3     1  UNL1        0.0908
     31 C         137.4076  139.7221  160.5187 C.3     1  UNL1        0.0908
     32 C         137.7724  140.4009  159.2318 C.3     1  UNL1        0.0232
@<TRIPOS>BOND
     1    29    30    1
     2    30    28    1
     3    28    31    1
     4    31    32    1
     5    28    22    1
     6    22    23   ar
     7    23    24   ar
     8    24    25   ar
     9    25    21    1
    10    21     1    1
    11     1     2   am
    12     2     3    2
    13     5     2    1
    14     5     6    1
    15     6     7    1
    16     7     8    1
    17     8     9    1
    18     9    11    1
    19    11    12   ar
    20    12    13   ar
    21    13    14   ar
    22    14    17    1
    23    17    18    1
    24    17    19    1
    25    17    20    1
    26    14    15   ar
    27    15    16   ar
    28    25    26   ar
    29    26    27   ar
    30    27    22   ar
    31     9     5    1
    32    16    11   ar
    33     1     4    1
    34     7    10    1
@<TRIPOS>MOLECULE
*****
 32 34 0 0 0
SMALL
GASTEIGER

@<TRIPOS>ATOM
      1 N         141.7035  139.1191  162.3470 N.am    1  UNL1       -0.3004
      2 C         140.4178  138.5336  161.8430 C.2     1  UNL1        0.2240
      3 O         139.8017  137.3602  162.5454 O.2     1  UNL1       -0.2750
      4 H         142.1079  139.8892  161.8860 H       1  UNL1        0.1497
      5 C         139.7481  139.1216  160.6363 C.3     1  UNL1        0.0975
      6 C         139.6282  138.4713  159.2899 C.3     1  UNL1        0.0781
      7 N         138.8868  139.4109  158.3857 N.3     1  UNL1       -0.2968
      8 C         138.5485  140.6419  159.1734 C.3     1  UNL1        0.0735
      9 C         139.0808  140.4631  160.5643 C.3     1  UNL1        0.0480
     10 H         138.0310  138.9672  158.0522 H       1  UNL1        0.1233
     11 C         138.9660  141.4521  161.6861 C.ar    1  UNL1       -0.0207
     12 C         140.1101  142.3717  161.9952 C.ar    1  UNL1       -0.0043
     13 C         139.9952  143.3608  163.1171 C.ar    1  UNL1        0.0035
     14 C         138.7364  143.4303  163.9299 C.ar    1  UNL1        0.0714
     15 C         137.5924  142.5106  163.6208 C.ar    1  UNL1        0.0035
     16 C         137.7073  141.5216  162.4989 C.ar    1  UNL1       -0.0043
     17 C         138.6216  144.4193  165.0517 C.3     1  UNL1        0.4186
     18 F         138.5067  145.4083  166.1736 F       1  UNL1       -0.1659
     19 F         140.1162  144.5353  165.1025 F       1  UNL1       -0.1659
     20 F         137.1269  144.3033  165.0010 F       1  UNL1       -0.1659
     21 C         142.3732  138.5311  163.5536 C.3     1  UNL1        0.1163
     22 C         141.7745  140.4099  167.5986 C.ar    1  UNL1        0.0478
     23 C         140.9959  140.9084  166.4174 C.ar    1  UNL1        0.0142
     24 C         141.1954  140.2822  165.0691 C.ar    1  UNL1       -0.0014
     25 C         142.1736  139.1574  164.9019 C.ar    1  UNL1       -0.0025
     26 C         142.9522  138.6588  166.0831 C.ar    1  UNL1       -0.0014
     27 C         142.7526  139.2851  167.4314 C.ar    1  UNL1        0.0142
     28 N         141.5749  141.0361  168.9469 N.pl3   1  UNL1       -0.3075
     29 C         143.7381  142.2576  169.7073 C.3     1  UNL1        0.0232
     30 C         142.2955  142.3036  169.2992 C.3     1  UNL1        0.0908
     31 C         140.6548  140.3949  169.9429 C.3     1  UNL1        0.0908
     32 C         139.1743  140.3901  169.7017 C.3     1  UNL1        0.0232
@<TRIPOS>BOND
     1    29    30    1
     2    30    28    1
     3    28    31    1
     4    31    32    1
     5    28    22    1
     6    22    23   ar
     7    23    24   ar
     8    24    25   ar
     9    25    21    1
    10    21     1    1
    11     1     2   am
    12     2     3    2
    13     5     2    1
    14     5     6    1
    15     6     7    1
    16     7     8    1
    17     8     9    1
    18     9    11    1
    19    11    12   ar
    20    12    13   ar
    21    13    14   ar
    22    14    17    1
    23    17    18    1
    24    17    19    1
    25    17    20    1
    26    14    15   ar
    27    15    16   ar
    28    25    26   ar
    29    26    27   ar
    30    27    22   ar
    31     9     5    1
    32    16    11   ar
    33     1     4    1
    34     7    10    1
@<TRIPOS>MOLECULE
*****
 32 34 0 0 0
SMALL
GASTEIGER

@<TRIPOS>ATOM
      1 N         141.7242  139.0453  162.4143 N.am    1  UNL1       -0.3004
      2 C         140.3757  138.5495  161.9833 C.2     1  UNL1        0.2240
      3 O         139.6858  137.4740  162.7688 O.2     1  UNL1       -0.2750
      4 H         142.1770  139.7513  161.8987 H       1  UNL1        0.1497
      5 C         139.7172  139.1293  160.7666 C.3     1  UNL1        0.0975
      6 C         139.5996  138.4652  159.4268 C.3     1  UNL1        0.0781
      7 N         138.8703  139.4004  158.5083 N.3     1  UNL1       -0.2968
      8 C         138.5373  140.6425  159.2805 C.3     1  UNL1        0.0735
      9 C         139.0606  140.4750  160.6762 C.3     1  UNL1        0.0480
     10 H         138.0130  138.9597  158.1749 H       1  UNL1        0.1233
     11 C         138.9473  141.4771  161.7865 C.ar    1  UNL1       -0.0207
     12 C         137.6593  141.6162  162.5427 C.ar    1  UNL1       -0.0043
     13 C         137.5460  142.6184  163.6530 C.ar    1  UNL1        0.0035
     14 C         138.7206  143.4815  164.0072 C.ar    1  UNL1        0.0714
     15 C         140.0085  143.3424  163.2510 C.ar    1  UNL1        0.0035
     16 C         140.1218  142.3402  162.1407 C.ar    1  UNL1       -0.0043
     17 C         138.6073  144.4836  165.1175 C.3     1  UNL1        0.4186
     18 F         138.4941  145.4858  166.2278 F       1  UNL1       -0.1659
     19 F         137.1154  144.3288  165.1051 F       1  UNL1       -0.1659
     20 F         140.0993  144.6385  165.1300 F       1  UNL1       -0.1659
     21 C         142.3827  138.4656  163.6309 C.3     1  UNL1        0.1163
     22 C         141.7086  140.3431  167.6646 C.ar    1  UNL1        0.0478
     23 C         142.7610  139.2878  167.4950 C.ar    1  UNL1        0.0142
     24 C         142.9857  138.6620  166.1504 C.ar    1  UNL1       -0.0014
     25 C         142.1580  139.0914  164.9755 C.ar    1  UNL1       -0.0025
     26 C         141.1056  140.1467  165.1452 C.ar    1  UNL1       -0.0014
     27 C         140.8809  140.7725  166.4897 C.ar    1  UNL1        0.0142
     28 N         141.4839  140.9689  169.0092 N.pl3   1  UNL1       -0.3075
     29 C         139.0848  140.4431  169.8563 C.3     1  UNL1        0.0232
     30 C         140.5718  140.3092  170.0005 C.3     1  UNL1        0.0908
     31 C         142.1713  142.2544  169.3624 C.3     1  UNL1        0.0908
     32 C         143.6449  142.2646  169.6425 C.3     1  UNL1        0.0232
@<TRIPOS>BOND
     1    29    30    1
     2    30    28    1
     3    28    31    1
     4    31    32    1
     5    28    22    1
     6    22    23   ar
     7    23    24   ar
     8    24    25   ar
     9    25    21    1
    10    21     1    1
    11     1     2   am
    12     2     3    2
    13     5     2    1
    14     5     6    1
    15     6     7    1
    16     7     8    1
    17     8     9    1
    18     9    11    1
    19    11    12   ar
    20    12    13   ar
    21    13    14   ar
    22    14    17    1
    23    17    18    1
    24    17    19    1
    25    17    20    1
    26    14    15   ar
    27    15    16   ar
    28    25    26   ar
    29    26    27   ar
    30    27    22   ar
    31     9     5    1
    32    16    11   ar
    33     1     4    1
    34     7    10    1
@<TRIPOS>MOLECULE
*****
 32 34 0 0 0
SMALL
GASTEIGER

@<TRIPOS>ATOM
      1 N         141.8580  145.1417  161.2981 N.am    1  UNL1       -0.3004
      2 C         141.3889  144.2623  160.1771 C.2     1  UNL1        0.2240
      3 O         139.9790  143.7505  160.1651 O.2     1  UNL1       -0.2750
      4 H         142.7834  145.4777  161.3060 H       1  UNL1        0.1497
      5 C         142.3297  143.8948  159.0681 C.3     1  UNL1        0.0975
      6 C         142.3135  144.4542  157.6764 C.3     1  UNL1        0.0781
      7 N         143.4256  143.8086  156.9043 N.3     1  UNL1       -0.2968
      8 C         144.1293  142.8501  157.8188 C.3     1  UNL1        0.0735
      9 C         143.4519  142.9035  159.1561 C.3     1  UNL1        0.0480
     10 H         144.0799  144.5203  156.5790 H       1  UNL1        0.1233
     11 C         143.8305  142.1055  160.3685 C.ar    1  UNL1       -0.0207
     12 C         144.6494  142.7360  161.4557 C.ar    1  UNL1       -0.0043
     13 C         145.0279  141.9381  162.6681 C.ar    1  UNL1        0.0035
     14 C         144.5875  140.5096  162.7934 C.ar    1  UNL1        0.0714
     15 C         143.7686  139.8792  161.7063 C.ar    1  UNL1        0.0035
     16 C         143.3901  140.6771  160.4939 C.ar    1  UNL1       -0.0043
     17 C         144.9660  139.7116  164.0058 C.3     1  UNL1        0.4186
     18 F         145.3446  138.9137  165.2183 F       1  UNL1       -0.1659
     19 F         143.9605  138.6639  163.6302 F       1  UNL1       -0.1659
     20 F         145.9717  140.7594  164.3815 F       1  UNL1       -0.1659
     21 C         140.9172  145.5093  162.4071 C.3     1  UNL1        0.1163
     22 C         140.6239  142.9045  166.0648 C.ar    1  UNL1        0.0478
     23 C         141.8517  142.8540  165.2046 C.ar    1  UNL1        0.0142
     24 C         141.9495  143.7222  163.9854 C.ar    1  UNL1       -0.0014
     25 C         140.8195  144.6410  163.6263 C.ar    1  UNL1       -0.0025
     26 C         139.5917  144.6915  164.4865 C.ar    1  UNL1       -0.0014
     27 C         139.4939  143.8232  165.7057 C.ar    1  UNL1        0.0142
     28 N         140.5261  142.0362  167.2840 N.pl3   1  UNL1       -0.3075
     29 C         139.3217  140.2045  165.8896 C.3     1  UNL1        0.0232
     30 C         139.8202  140.7148  167.2091 C.3     1  UNL1        0.0908
     31 C         141.1342  142.4893  168.5782 C.3     1  UNL1        0.0908
     32 C         140.4345  143.5179  169.4162 C.3     1  UNL1        0.0232
@<TRIPOS>BOND
     1    29    30    1
     2    30    28    1
     3    28    31    1
     4    31    32    1
     5    28    22    1
     6    22    23   ar
     7    23    24   ar
     8    24    25   ar
     9    25    21    1
    10    21     1    1
    11     1     2   am
    12     2     3    2
    13     5     2    1
    14     5     6    1
    15     6     7    1
    16     7     8    1
    17     8     9    1
    18     9    11    1
    19    11    12   ar
    20    12    13   ar
    21    13    14   ar
    22    14    17    1
    23    17    18    1
    24    17    19    1
    25    17    20    1
    26    14    15   ar
    27    15    16   ar
    28    25    26   ar
    29    26    27   ar
    30    27    22   ar
    31     9     5    1
    32    16    11   ar
    33     1     4    1
    34     7    10    1
@<TRIPOS>MOLECULE
*****
 32 34 0 0 0
SMALL
GASTEIGER

@<TRIPOS>ATOM
      1 N         145.1836  142.5421  162.0195 N.am    1  UNL1       -0.3004
      2 C         144.3760  141.8508  160.9612 C.2     1  UNL1        0.2240
      3 O         144.0428  140.3953  161.1033 O.2     1  UNL1       -0.2750
      4 H         145.4023  143.4975  161.9262 H       1  UNL1        0.1497
      5 C         143.9016  142.6152  159.7609 C.3     1  UNL1        0.0975
      6 C         144.5577  142.6345  158.4121 C.3     1  UNL1        0.0781
      7 N         143.7495  143.5256  157.5162 N.3     1  UNL1       -0.2968
      8 C         142.5939  144.0571  158.3113 C.3     1  UNL1        0.0735
      9 C         142.6879  143.4944  159.6986 C.3     1  UNL1        0.0480
     10 H         143.4045  142.9927  156.7178 H       1  UNL1        0.1233
     11 C         141.7354  143.7636  160.8256 C.ar    1  UNL1       -0.0207
     12 C         142.1923  144.5417  162.0239 C.ar    1  UNL1       -0.0043
     13 C         141.2398  144.8110  163.1510 C.ar    1  UNL1        0.0035
     14 C         139.8305  144.3022  163.0798 C.ar    1  UNL1        0.0714
     15 C         139.3737  143.5241  161.8815 C.ar    1  UNL1        0.0035
     16 C         140.3262  143.2548  160.7545 C.ar    1  UNL1       -0.0043
     17 C         138.8780  144.5714  164.2068 C.3     1  UNL1        0.4186
     18 F         137.9254  144.8406  165.3338 F       1  UNL1       -0.1659
     19 F         140.0057  144.4514  165.1886 F       1  UNL1       -0.1659
     20 F         137.7502  144.6914  163.2250 F       1  UNL1       -0.1659
     21 C         145.6580  141.7778  163.2198 C.3     1  UNL1        0.1163
     22 C         142.7725  140.7467  166.5154 C.ar    1  UNL1        0.0478
     23 C         143.0997  142.1818  166.2268 C.ar    1  UNL1        0.0142
     24 C         144.0616  142.5255  165.1282 C.ar    1  UNL1       -0.0014
     25 C         144.6962  141.4341  164.3183 C.ar    1  UNL1       -0.0025
     26 C         144.3690  139.9990  164.6069 C.ar    1  UNL1       -0.0014
     27 C         143.4072  139.6553  165.7054 C.ar    1  UNL1        0.0142
     28 N         141.8107  140.4030  167.6139 N.pl3   1  UNL1       -0.3075
     29 C         139.3661  139.9901  168.3905 C.3     1  UNL1        0.0232
     30 C         140.3347  140.5511  167.3920 C.3     1  UNL1        0.0908
     31 C         142.3249  139.9111  168.9343 C.3     1  UNL1        0.0908
     32 C         143.0414  140.8515  169.8576 C.3     1  UNL1        0.0232
@<TRIPOS>BOND
     1    29    30    1
     2    30    28    1
     3    28    31    1
     4    31    32    1
     5    28    22    1
     6    22    23   ar
     7    23    24   ar
     8    24    25   ar
     9    25    21    1
    10    21     1    1
    11     1     2   am
    12     2     3    2
    13     5     2    1
    14     5     6    1
    15     6     7    1
    16     7     8    1
    17     8     9    1
    18     9    11    1
    19    11    12   ar
    20    12    13   ar
    21    13    14   ar
    22    14    17    1
    23    17    18    1
    24    17    19    1
    25    17    20    1
    26    14    15   ar
    27    15    16   ar
    28    25    26   ar
    29    26    27   ar
    30    27    22   ar
    31     9     5    1
    32    16    11   ar
    33     1     4    1
    34     7    10    1
@<TRIPOS>MOLECULE
*****
 32 34 0 0 0
SMALL
GASTEIGER

@<TRIPOS>ATOM
      1 N         142.3885  141.3462  162.8319 N.am    1  UNL1       -0.3004
      2 C         143.0868  140.4238  161.8772 C.2     1  UNL1        0.2240
      3 O         144.5632  140.1913  162.0033 O.2     1  UNL1       -0.2750
      4 H         141.4194  141.4988  162.7491 H       1  UNL1        0.1497
      5 C         142.3085  139.7337  160.7963 C.3     1  UNL1        0.0975
      6 C         142.6857  139.6631  159.3462 C.3     1  UNL1        0.0781
      7 N         141.6268  138.8790  158.6294 N.3     1  UNL1       -0.2968
      8 C         140.5951  138.4650  159.6366 C.3     1  UNL1        0.0735
      9 C         141.0164  138.9933  160.9758 C.3     1  UNL1        0.0480
     10 H         142.0405  138.0525  158.1980 H       1  UNL1        0.1233
     11 C         140.2757  138.8128  162.2675 C.ar    1  UNL1       -0.0207
     12 C         140.6950  137.7404  163.2290 C.ar    1  UNL1       -0.0043
     13 C         139.9543  137.5599  164.5207 C.ar    1  UNL1        0.0035
     14 C         138.7943  138.4516  164.8512 C.ar    1  UNL1        0.0714
     15 C         138.3750  139.5240  163.8898 C.ar    1  UNL1        0.0035
     16 C         139.1158  139.7045  162.5980 C.ar    1  UNL1       -0.0043
     17 C         138.0536  138.2711  166.1430 C.3     1  UNL1        0.4186
     18 F         137.3129  138.0907  167.4348 F       1  UNL1       -0.1659
     19 F         138.1590  136.7821  165.9954 F       1  UNL1       -0.1659
     20 F         137.9482  139.7602  166.2906 F       1  UNL1       -0.1659
     21 C         143.1667  142.0362  163.9127 C.3     1  UNL1        0.1163
     22 C         141.8954  141.6297  168.2102 C.ar    1  UNL1        0.0478
     23 C         143.1444  142.3855  167.8659 C.ar    1  UNL1        0.0142
     24 C         143.5682  142.5210  166.4334 C.ar    1  UNL1       -0.0014
     25 C         142.7430  141.9007  165.3452 C.ar    1  UNL1       -0.0025
     26 C         141.4939  141.1449  165.6896 C.ar    1  UNL1       -0.0014
     27 C         141.0702  141.0094  167.1221 C.ar    1  UNL1        0.0142
     28 N         141.4716  141.4942  169.6427 N.pl3   1  UNL1       -0.3075
     29 C         142.4378  139.1078  169.9914 C.3     1  UNL1        0.0232
     30 C         142.1280  140.4747  170.5258 C.3     1  UNL1        0.0908
     31 C         140.3915  142.3781  170.1922 C.3     1  UNL1        0.0908
     32 C         140.3950  143.8463  169.8846 C.3     1  UNL1        0.0232
@<TRIPOS>BOND
     1    29    30    1
     2    30    28    1
     3    28    31    1
     4    31    32    1
     5    28    22    1
     6    22    23   ar
     7    23    24   ar
     8    24    25   ar
     9    25    21    1
    10    21     1    1
    11     1     2   am
    12     2     3    2
    13     5     2    1
    14     5     6    1
    15     6     7    1
    16     7     8    1
    17     8     9    1
    18     9    11    1
    19    11    12   ar
    20    12    13   ar
    21    13    14   ar
    22    14    17    1
    23    17    18    1
    24    17    19    1
    25    17    20    1
    26    14    15   ar
    27    15    16   ar
    28    25    26   ar
    29    26    27   ar
    30    27    22   ar
    31     9     5    1
    32    16    11   ar
    33     1     4    1
    34     7    10    1
@<TRIPOS>MOLECULE
*****
 32 34 0 0 0
SMALL
GASTEIGER

@<TRIPOS>ATOM
      1 N         142.6720  138.8051  167.1837 N.am    1  UNL1       -0.3004
      2 C         142.4291  139.9759  168.0893 C.2     1  UNL1        0.2240
      3 O         143.3632  141.1492  168.0652 O.2     1  UNL1       -0.2750
      4 H         142.0588  138.0350  167.1995 H       1  UNL1        0.1497
      5 C         141.2519  139.9734  169.0191 C.3     1  UNL1        0.0975
      6 C         141.3088  139.8540  170.5132 C.3     1  UNL1        0.0781
      7 N         139.9033  139.8966  171.0355 N.3     1  UNL1       -0.2968
      8 C         138.9778  140.0424  169.8641 C.3     1  UNL1        0.0735
      9 C         139.8113  140.0899  168.6179 C.3     1  UNL1        0.0480
     10 H         139.7921  140.6910  171.6655 H       1  UNL1        0.1233
     11 C         139.2947  140.2293  167.2166 C.ar    1  UNL1       -0.0207
     12 C         139.5987  141.4666  166.4249 C.ar    1  UNL1       -0.0043
     13 C         139.0822  141.6061  165.0236 C.ar    1  UNL1        0.0035
     14 C         138.2617  140.5083  164.4138 C.ar    1  UNL1        0.0714
     15 C         137.9577  139.2711  165.2056 C.ar    1  UNL1        0.0035
     16 C         138.4742  139.1316  166.6069 C.ar    1  UNL1       -0.0043
     17 C         137.7451  140.6478  163.0125 C.3     1  UNL1        0.4186
     18 F         137.2287  140.7871  161.6112 F       1  UNL1       -0.1659
     19 F         137.0330  141.9096  163.4006 F       1  UNL1       -0.1659
     20 F         138.4573  139.3858  162.6245 F       1  UNL1       -0.1659
     21 C         143.8490  138.8076  166.2539 C.3     1  UNL1        0.1163
     22 C         143.5875  140.9372  162.2984 C.ar    1  UNL1        0.0478
     23 C         142.3346  140.5195  163.0096 C.ar    1  UNL1        0.0142
     24 C         142.4218  139.8096  164.3281 C.ar    1  UNL1       -0.0014
     25 C         143.7619  139.5175  164.9354 C.ar    1  UNL1       -0.0025
     26 C         145.0147  139.9352  164.2242 C.ar    1  UNL1       -0.0014
     27 C         144.9275  140.6450  162.9057 C.ar    1  UNL1        0.0142
     28 N         143.5003  141.6471  160.9799 N.pl3   1  UNL1       -0.3075
     29 C         143.4084  143.9594  162.1609 C.3     1  UNL1        0.0232
     30 C         143.6245  143.1408  160.9226 C.3     1  UNL1        0.0908
     31 C         143.2889  140.8632  159.7186 C.3     1  UNL1        0.0908
     32 C         143.5212  139.3814  159.7087 C.3     1  UNL1        0.0232
@<TRIPOS>BOND
     1    29    30    1
     2    30    28    1
     3    28    31    1
     4    31    32    1
     5    28    22    1
     6    22    23   ar
     7    23    24   ar
     8    24    25   ar
     9    25    21    1
    10    21     1    1
    11     1     2   am
    12     2     3    2
    13     5     2    1
    14     5     6    1
    15     6     7    1
    16     7     8    1
    17     8     9    1
    18     9    11    1
    19    11    12   ar
    20    12    13   ar
    21    13    14   ar
    22    14    17    1
    23    17    18    1
    24    17    19    1
    25    17    20    1
    26    14    15   ar
    27    15    16   ar
    28    25    26   ar
    29    26    27   ar
    30    27    22   ar
    31     9     5    1
    32    16    11   ar
    33     1     4    1
    34     7    10    1
