@<TRIPOS>MOLECULE
*****
 21 22 0 0 0
SMALL
GASTEIGER

@<TRIPOS>ATOM
      1 N         140.9167  142.0035  168.0156 N.am    1  UNL1       -0.2763
      2 C         142.3964  141.8433  167.8289 C.2     1  UNL1        0.2487
      3 O         143.3485  142.6806  168.6305 O.2     1  UNL1       -0.2699
      4 C         142.9240  140.8458  166.8406 C.ar    1  UNL1        0.0496
      5 C         142.9497  139.3870  167.1883 C.ar    1  UNL1        0.0042
      6 C         143.4773  138.3896  166.2000 C.ar    1  UNL1        0.0001
      7 C         143.9792  138.8511  164.8639 C.ar    1  UNL1       -0.0003
      8 C         143.9535  140.3099  164.5162 C.ar    1  UNL1       -0.0041
      9 C         143.4259  141.3073  165.5045 C.ar    1  UNL1       -0.0181
     10 C         143.4002  142.7663  165.1567 C.3     1  UNL1        0.0225
     11 C         144.5926  143.6281  165.4491 C.3     1  UNL1        0.0047
     12 C         142.1821  143.3634  164.5166 C.3     1  UNL1        0.0047
     13 C         139.9646  141.1662  167.2140 C.3     1  UNL1        0.0927
     14 C         139.3652  139.8592  167.6412 C.3     1  UNL1        0.0383
     15 C         138.4750  139.3741  166.5357 C.3     1  UNL1        0.0704
     16 N         138.5242  140.3814  165.4252 N.3     1  UNL1       -0.2960
     17 C         139.4448  141.4889  165.8444 C.3     1  UNL1        0.0887
     18 H         137.5901  140.7538  165.2540 H       1  UNL1        0.1233
     19 C         140.3891  143.0009  169.0039 C.3     1  UNL1        0.0937
     20 C         140.7662  141.5105  171.0983 C.3     1  UNL1        0.0018
     21 C         139.9668  142.5508  170.3711 C.3     1  UNL1        0.0215
@<TRIPOS>BOND
     1    20    21    1
     2    21    19    1
     3    19     1    1
     4     1     2   am
     5     2     3    2
     6     2     4    1
     7     4     5   ar
     8     5     6   ar
     9     6     7   ar
    10     7     8   ar
    11     8     9   ar
    12     9    10    1
    13    10    11    1
    14    10    12    1
    15    13     1    1
    16    13    14    1
    17    14    15    1
    18    15    16    1
    19    16    17    1
    20     9     4   ar
    21    17    13    1
    22    16    18    1
@<TRIPOS>MOLECULE
*****
 21 22 0 0 0
SMALL
GASTEIGER

@<TRIPOS>ATOM
      1 N         140.8550  141.9131  167.7479 N.am    1  UNL1       -0.2763
      2 C         140.7052  140.4283  167.8986 C.2     1  UNL1        0.2487
      3 O         140.1257  139.8569  169.1586 O.2     1  UNL1       -0.2699
      4 C         141.1349  139.5147  166.7891 C.ar    1  UNL1        0.0496
      5 C         142.5751  139.1151  166.6619 C.ar    1  UNL1        0.0042
      6 C         143.0048  138.2016  165.5525 C.ar    1  UNL1        0.0001
      7 C         141.9943  137.6877  164.5703 C.ar    1  UNL1       -0.0003
      8 C         140.5541  138.0872  164.6975 C.ar    1  UNL1       -0.0041
      9 C         140.1244  139.0007  165.8069 C.ar    1  UNL1       -0.0181
     10 C         138.6842  139.4003  165.9342 C.3     1  UNL1        0.0225
     11 C         137.7706  138.6334  166.8436 C.3     1  UNL1        0.0047
     12 C         138.1576  140.5669  165.1520 C.3     1  UNL1        0.0047
     13 C         141.4345  142.4844  166.4878 C.3     1  UNL1        0.0927
     14 C         142.8894  142.5223  166.1244 C.3     1  UNL1        0.0383
     15 C         143.0149  143.1794  164.7819 C.3     1  UNL1        0.0704
     16 N         141.6376  143.5477  164.3155 N.3     1  UNL1       -0.2960
     17 C         140.6609  143.1182  165.3698 C.3     1  UNL1        0.0887
     18 H         141.4307  143.0718  163.4374 H       1  UNL1        0.1233
     19 C         140.4253  142.8267  168.8573 C.3     1  UNL1        0.0937
     20 C         142.8055  142.7118  169.8925 C.3     1  UNL1        0.0018
     21 C         141.3709  143.1416  169.9783 C.3     1  UNL1        0.0215
@<TRIPOS>BOND
     1    20    21    1
     2    21    19    1
     3    19     1    1
     4     1     2   am
     5     2     3    2
     6     2     4    1
     7     4     5   ar
     8     5     6   ar
     9     6     7   ar
    10     7     8   ar
    11     8     9   ar
    12     9    10    1
    13    10    11    1
    14    10    12    1
    15    13     1    1
    16    13    14    1
    17    14    15    1
    18    15    16    1
    19    16    17    1
    20     9     4   ar
    21    17    13    1
    22    16    18    1
@<TRIPOS>MOLECULE
*****
 21 22 0 0 0
SMALL
GASTEIGER

@<TRIPOS>ATOM
      1 N         142.3381  141.6615  167.5726 N.am    1  UNL1       -0.2763
      2 C         140.8870  142.0404  167.6026 C.2     1  UNL1        0.2487
      3 O         140.4129  143.1205  168.5292 O.2     1  UNL1       -0.2699
      4 C         139.9101  141.3392  166.7059 C.ar    1  UNL1        0.0496
      5 C         139.4370  139.9573  167.0473 C.ar    1  UNL1        0.0042
      6 C         138.4601  139.2562  166.1506 C.ar    1  UNL1        0.0001
      7 C         137.9563  139.9369  164.9126 C.ar    1  UNL1       -0.0003
      8 C         138.4293  141.3188  164.5712 C.ar    1  UNL1       -0.0041
      9 C         139.4062  142.0199  165.4679 C.ar    1  UNL1       -0.0181
     10 C         139.8793  143.4019  165.1265 C.3     1  UNL1        0.0225
     11 C         139.0303  144.5907  165.4669 C.3     1  UNL1        0.0047
     12 C         141.2014  143.5950  164.4447 C.3     1  UNL1        0.0047
     13 C         142.8122  140.5814  166.6459 C.3     1  UNL1        0.0927
     14 C         142.8925  139.1180  166.9654 C.3     1  UNL1        0.0383
     15 C         143.4191  138.4073  165.7540 C.3     1  UNL1        0.0704
     16 N         143.6642  139.4314  164.6857 N.3     1  UNL1       -0.2960
     17 C         143.2891  140.7750  165.2370 C.3     1  UNL1        0.0887
     18 H         143.0930  139.2212  163.8672 H       1  UNL1        0.1233
     19 C         143.3150  142.3626  168.4692 C.3     1  UNL1        0.0937
     20 C         142.9552  140.5786  170.3233 C.3     1  UNL1        0.0018
     21 C         143.4844  141.9138  169.8904 C.3     1  UNL1        0.0215
@<TRIPOS>BOND
     1    20    21    1
     2    21    19    1
     3    19     1    1
     4     1     2   am
     5     2     3    2
     6     2     4    1
     7     4     5   ar
     8     5     6   ar
     9     6     7   ar
    10     7     8   ar
    11     8     9   ar
    12     9    10    1
    13    10    11    1
    14    10    12    1
    15    13     1    1
    16    13    14    1
    17    14    15    1
    18    15    16    1
    19    16    17    1
    20     9     4   ar
    21    17    13    1
    22    16    18    1
@<TRIPOS>MOLECULE
*****
 21 22 0 0 0
SMALL
GASTEIGER

@<TRIPOS>ATOM
      1 N         141.8775  141.7829  167.6966 N.am    1  UNL1       -0.2763
      2 C         141.5266  140.3364  167.8823 C.2     1  UNL1        0.2487
      3 O         141.9692  139.6099  169.1177 O.2     1  UNL1       -0.2699
      4 C         140.7331  139.6163  166.8325 C.ar    1  UNL1        0.0496
      5 C         139.2341  139.6309  166.8839 C.ar    1  UNL1        0.0042
      6 C         138.4407  138.9109  165.8341 C.ar    1  UNL1        0.0001
      7 C         139.1463  138.1763  164.7329 C.ar    1  UNL1       -0.0003
      8 C         140.6454  138.1618  164.6816 C.ar    1  UNL1       -0.0041
      9 C         141.4388  138.8818  165.7313 C.ar    1  UNL1       -0.0181
     10 C         142.9379  138.8673  165.6800 C.3     1  UNL1        0.0225
     11 C         143.7116  137.9807  166.6102 C.3     1  UNL1        0.0047
     12 C         143.6632  139.7393  164.6985 C.3     1  UNL1        0.0047
     13 C         141.4349  142.5094  166.4610 C.3     1  UNL1        0.0927
     14 C         140.0619  143.0558  166.2037 C.3     1  UNL1        0.0383
     15 C         140.0661  143.7011  164.8496 C.3     1  UNL1        0.0704
     16 N         141.4417  143.5534  164.2700 N.3     1  UNL1       -0.2960
     17 C         142.2877  142.8169  165.2659 C.3     1  UNL1        0.0887
     18 H         141.8420  144.4741  164.0895 H       1  UNL1        0.1233
     19 C         142.6709  142.5029  168.7463 C.3     1  UNL1        0.0937
     20 C         140.6018  143.6476  169.8227 C.3     1  UNL1        0.0018
     21 C         141.9803  143.0701  169.9510 C.3     1  UNL1        0.0215
@<TRIPOS>BOND
     1    20    21    1
     2    21    19    1
     3    19     1    1
     4     1     2   am
     5     2     3    2
     6     2     4    1
     7     4     5   ar
     8     5     6   ar
     9     6     7   ar
    10     7     8   ar
    11     8     9   ar
    12     9    10    1
    13    10    11    1
    14    10    12    1
    15    13     1    1
    16    13    14    1
    17    14    15    1
    18    15    16    1
    19    16    17    1
    20     9     4   ar
    21    17    13    1
    22    16    18    1
@<TRIPOS>MOLECULE
*****
 21 22 0 0 0
SMALL
GASTEIGER

@<TRIPOS>ATOM
      1 N         141.8114  140.3276  167.3349 N.am    1  UNL1       -0.2763
      2 C         140.3605  140.6834  167.4698 C.2     1  UNL1        0.2487
      3 O         139.6601  140.4917  168.7823 O.2     1  UNL1       -0.2699
      4 C         139.6100  141.2310  166.2921 C.ar    1  UNL1        0.0496
      5 C         139.7475  142.6780  165.9219 C.ar    1  UNL1        0.0042
      6 C         138.9970  143.2255  164.7442 C.ar    1  UNL1        0.0001
      7 C         138.1089  142.3259  163.9367 C.ar    1  UNL1       -0.0003
      8 C         137.9714  140.8788  164.3069 C.ar    1  UNL1       -0.0041
      9 C         138.7219  140.3314  165.4845 C.ar    1  UNL1       -0.0181
     10 C         138.5844  138.8842  165.8548 C.3     1  UNL1        0.0225
     11 C         137.6407  138.4759  166.9469 C.3     1  UNL1        0.0047
     12 C         139.3905  137.8455  165.1329 C.3     1  UNL1        0.0047
     13 C         142.5118  140.5193  166.0223 C.3     1  UNL1        0.0927
     14 C         143.2863  141.7344  165.6055 C.3     1  UNL1        0.0383
     15 C         143.8138  141.4956  164.2217 C.3     1  UNL1        0.0704
     16 N         143.3653  140.1330  163.7834 N.3     1  UNL1       -0.2960
     17 C         142.5606  139.5296  164.8962 C.3     1  UNL1        0.0887
     18 H         144.1774  139.5479  163.5868 H       1  UNL1        0.1233
     19 C         142.5620  139.7801  168.5126 C.3     1  UNL1        0.0937
     20 C         143.3456  142.1118  169.3488 C.3     1  UNL1        0.0018
     21 C         142.9626  140.6901  169.6356 C.3     1  UNL1        0.0215
@<TRIPOS>BOND
     1    20    21    1
     2    21    19    1
     3    19     1    1
     4     1     2   am
     5     2     3    2
     6     2     4    1
     7     4     5   ar
     8     5     6   ar
     9     6     7   ar
    10     7     8   ar
    11     8     9   ar
    12     9    10    1
    13    10    11    1
    14    10    12    1
    15    13     1    1
    16    13    14    1
    17    14    15    1
    18    15    16    1
    19    16    17    1
    20     9     4   ar
    21    17    13    1
    22    16    18    1
@<TRIPOS>MOLECULE
*****
 21 22 0 0 0
SMALL
GASTEIGER

@<TRIPOS>ATOM
      1 N         140.1874  141.0748  165.4203 N.am    1  UNL1       -0.2763
      2 C         140.3988  141.7833  164.1152 C.2     1  UNL1        0.2487
      3 O         139.5934  141.3938  162.9112 O.2     1  UNL1       -0.2699
      4 C         141.4158  142.8814  164.0141 C.ar    1  UNL1        0.0496
      5 C         142.8759  142.5467  163.9383 C.ar    1  UNL1        0.0042
      6 C         143.8928  143.6447  163.8372 C.ar    1  UNL1        0.0001
      7 C         143.4495  145.0775  163.8119 C.ar    1  UNL1       -0.0003
      8 C         141.9893  145.4122  163.8877 C.ar    1  UNL1       -0.0041
      9 C         140.9724  144.3142  163.9888 C.ar    1  UNL1       -0.0181
     10 C         139.5122  144.6488  164.0646 C.3     1  UNL1        0.0225
     11 C         138.7116  144.8026  162.8054 C.3     1  UNL1        0.0047
     12 C         138.8525  144.8298  165.3995 C.3     1  UNL1        0.0047
     13 C         140.9928  141.4644  166.6243 C.3     1  UNL1        0.0927
     14 C         140.6458  142.5445  167.6054 C.3     1  UNL1        0.0383
     15 C         141.7252  142.5899  168.6460 C.3     1  UNL1        0.0704
     16 N         142.7395  141.5377  168.3079 N.3     1  UNL1       -0.2960
     17 C         142.2868  140.8421  167.0584 C.3     1  UNL1        0.0887
     18 H         142.8092  140.8658  169.0722 H       1  UNL1        0.1233
     19 C         139.1705  139.9768  165.5214 C.3     1  UNL1        0.0937
     20 C         137.6463  138.4899  167.0100 C.3     1  UNL1        0.0018
     21 C         138.8493  139.3727  166.8563 C.3     1  UNL1        0.0215
@<TRIPOS>BOND
     1    20    21    1
     2    21    19    1
     3    19     1    1
     4     1     2   am
     5     2     3    2
     6     2     4    1
     7     4     5   ar
     8     5     6   ar
     9     6     7   ar
    10     7     8   ar
    11     8     9   ar
    12     9    10    1
    13    10    11    1
    14    10    12    1
    15    13     1    1
    16    13    14    1
    17    14    15    1
    18    15    16    1
    19    16    17    1
    20     9     4   ar
    21    17    13    1
    22    16    18    1
@<TRIPOS>MOLECULE
*****
 21 22 0 0 0
SMALL
GASTEIGER

@<TRIPOS>ATOM
      1 N         139.2537  141.4755  164.7647 N.am    1  UNL1       -0.2763
      2 C         139.3184  140.2498  165.6270 C.2     1  UNL1        0.2487
      3 O         138.0539  139.5627  166.0499 O.2     1  UNL1       -0.2699
      4 C         140.6477  139.7112  166.0664 C.ar    1  UNL1        0.0496
      5 C         141.4470  138.8411  165.1423 C.ar    1  UNL1        0.0042
      6 C         142.7762  138.3025  165.5818 C.ar    1  UNL1        0.0001
      7 C         143.3061  138.6342  166.9453 C.ar    1  UNL1       -0.0003
      8 C         142.5069  139.5043  167.8694 C.ar    1  UNL1       -0.0041
      9 C         141.1777  140.0428  167.4300 C.ar    1  UNL1       -0.0181
     10 C         140.3784  140.9131  168.3541 C.3     1  UNL1        0.0225
     11 C         140.6093  142.3950  168.3757 C.3     1  UNL1        0.0047
     12 C         139.3481  140.3013  169.2564 C.3     1  UNL1        0.0047
     13 C         140.5184  142.1625  164.3418 C.3     1  UNL1        0.0927
     14 C         141.2579  143.2075  165.1236 C.3     1  UNL1        0.0383
     15 C         142.4620  143.6160  164.3278 C.3     1  UNL1        0.0704
     16 N         142.4667  142.8235  163.0542 N.3     1  UNL1       -0.2960
     17 C         141.2654  141.9252  163.0629 C.3     1  UNL1        0.0887
     18 H         143.3173  142.2635  162.9981 H       1  UNL1        0.1233
     19 C         137.9246  142.0141  164.3253 C.3     1  UNL1        0.0937
     20 C         137.7671  144.2971  163.0953 C.3     1  UNL1        0.0018
     21 C         137.6665  143.4913  164.3565 C.3     1  UNL1        0.0215
@<TRIPOS>BOND
     1    20    21    1
     2    21    19    1
     3    19     1    1
     4     1     2   am
     5     2     3    2
     6     2     4    1
     7     4     5   ar
     8     5     6   ar
     9     6     7   ar
    10     7     8   ar
    11     8     9   ar
    12     9    10    1
    13    10    11    1
    14    10    12    1
    15    13     1    1
    16    13    14    1
    17    14    15    1
    18    15    16    1
    19    16    17    1
    20     9     4   ar
    21    17    13    1
    22    16    18    1
@<TRIPOS>MOLECULE
*****
 21 22 0 0 0
SMALL
GASTEIGER

@<TRIPOS>ATOM
      1 N         138.9795  140.2704  162.4616 N.am    1  UNL1       -0.2763
      2 C         138.3023  140.9614  163.6079 C.2     1  UNL1        0.2487
      3 O         137.2835  142.0300  163.3433 O.2     1  UNL1       -0.2699
      4 C         138.6440  140.5837  165.0189 C.ar    1  UNL1        0.0496
      5 C         138.0526  139.3474  165.6285 C.ar    1  UNL1        0.0042
      6 C         138.3943  138.9698  167.0394 C.ar    1  UNL1        0.0001
      7 C         139.3274  139.8285  167.8406 C.ar    1  UNL1       -0.0003
      8 C         139.9188  141.0648  167.2310 C.ar    1  UNL1       -0.0041
      9 C         139.5771  141.4424  165.8201 C.ar    1  UNL1       -0.0181
     10 C         140.1685  142.6788  165.2103 C.3     1  UNL1        0.0225
     11 C         141.5243  142.6248  164.5709 C.3     1  UNL1        0.0047
     12 C         139.4042  143.9691  165.2401 C.3     1  UNL1        0.0047
     13 C         139.9983  139.2017  162.7263 C.3     1  UNL1        0.0927
     14 C         141.4379  139.4251  163.0839 C.3     1  UNL1        0.0383
     15 C         142.0857  138.0835  163.2584 C.3     1  UNL1        0.0704
     16 N         141.0465  137.0309  163.0087 N.3     1  UNL1       -0.2960
     17 C         139.7565  137.7221  162.6798 C.3     1  UNL1        0.0887
     18 H         140.9284  136.4562  163.8431 H       1  UNL1        0.1233
     19 C         138.6378  140.6480  161.0508 C.3     1  UNL1        0.0937
     20 C         140.4075  142.5487  161.1288 C.3     1  UNL1        0.0018
     21 C         139.3245  141.8111  160.3984 C.3     1  UNL1        0.0215
@<TRIPOS>BOND
     1    20    21    1
     2    21    19    1
     3    19     1    1
     4     1     2   am
     5     2     3    2
     6     2     4    1
     7     4     5   ar
     8     5     6   ar
     9     6     7   ar
    10     7     8   ar
    11     8     9   ar
    12     9    10    1
    13    10    11    1
    14    10    12    1
    15    13     1    1
    16    13    14    1
    17    14    15    1
    18    15    16    1
    19    16    17    1
    20     9     4   ar
    21    17    13    1
    22    16    18    1
@<TRIPOS>MOLECULE
*****
 21 22 0 0 0
SMALL
GASTEIGER

@<TRIPOS>ATOM
      1 N         141.9315  140.6900  165.5121 N.am    1  UNL1       -0.2763
      2 C         141.2336  141.2196  164.2946 C.2     1  UNL1        0.2487
      3 O         141.6235  140.7266  162.9327 O.2     1  UNL1       -0.2699
      4 C         140.1458  142.2424  164.4390 C.ar    1  UNL1        0.0496
      5 C         140.4961  143.6903  164.6138 C.ar    1  UNL1        0.0042
      6 C         139.4084  144.7130  164.7582 C.ar    1  UNL1        0.0001
      7 C         137.9703  144.2877  164.7278 C.ar    1  UNL1       -0.0003
      8 C         137.6199  142.8397  164.5530 C.ar    1  UNL1       -0.0041
      9 C         138.7077  141.8171  164.4086 C.ar    1  UNL1       -0.0181
     10 C         138.3574  140.3690  164.2337 C.3     1  UNL1        0.0225
     11 C         138.1773  139.8019  162.8568 C.3     1  UNL1        0.0047
     12 C         138.1871  139.4881  165.4358 C.3     1  UNL1        0.0047
     13 C         141.5416  141.1831  166.8741 C.3     1  UNL1        0.0927
     14 C         140.4179  140.6539  167.7151 C.3     1  UNL1        0.0383
     15 C         140.3888  141.4357  168.9949 C.3     1  UNL1        0.0704
     16 N         141.4945  142.4482  168.9449 N.3     1  UNL1       -0.2960
     17 C         142.2069  142.2920  167.6342 C.3     1  UNL1        0.0887
     18 H         142.1453  142.2883  169.7138 H       1  UNL1        0.1233
     19 C         143.0192  139.6673  165.3678 C.3     1  UNL1        0.0937
     20 C         141.4871  137.6477  164.7985 C.3     1  UNL1        0.0018
     21 C         142.6966  138.2073  165.4871 C.3     1  UNL1        0.0215
@<TRIPOS>BOND
     1    20    21    1
     2    21    19    1
     3    19     1    1
     4     1     2   am
     5     2     3    2
     6     2     4    1
     7     4     5   ar
     8     5     6   ar
     9     6     7   ar
    10     7     8   ar
    11     8     9   ar
    12     9    10    1
    13    10    11    1
    14    10    12    1
    15    13     1    1
    16    13    14    1
    17    14    15    1
    18    15    16    1
    19    16    17    1
    20     9     4   ar
    21    17    13    1
    22    16    18    1
