@<TRIPOS>MOLECULE
*****
 35 39 0 0 0
SMALL
GASTEIGER

@<TRIPOS>ATOM
      1 C         137.9226  140.4542  161.7606 C.3     1  UNL1        0.2722
      2 N         138.8218  142.7533  160.9509 N.am    1  UNL1       -0.2651
      3 C         138.7587  141.2611  160.8119 C.2     1  UNL1        0.2701
      4 O         139.5315  140.5758  159.7243 O.2     1  UNL1       -0.2707
      5 H         138.3146  143.2031  161.6648 H       1  UNL1        0.1564
      6 C         142.1660  145.9809  157.1564 C.3     1  UNL1        0.0538
      7 C         141.3300  145.1740  158.1050 C.ar    1  UNL1        0.0786
      8 C         140.0487  144.5529  157.6334 C.ar    1  UNL1        0.1150
      9 N         139.2126  143.7460  158.5820 N.ar    1  UNL1       -0.2262
     10 C         139.6579  143.5602  160.0023 C.ar    1  UNL1        0.1536
     11 C         140.9391  144.1813  160.4740 C.ar    1  UNL1        0.1328
     12 N         141.7752  144.9883  159.5253 N.ar    1  UNL1       -0.2436
     13 C         137.6495  139.0072  161.4751 C.3     1  UNL1        0.1950
     14 O         138.1769  137.9483  162.3974 O.3     1  UNL1       -0.3519
     15 C         139.6541  137.8186  162.6237 C.3     1  UNL1        0.1154
     16 C         140.8803  138.0845  161.8020 C.3     1  UNL1        0.0296
     17 C         141.7431  137.6352  162.9439 C.3     1  UNL1        0.0050
     18 C         140.5167  137.3693  163.7656 C.3     1  UNL1        0.0296
     19 O         137.3596  141.0944  162.9948 O.3     1  UNL1       -0.4517
     20 C         138.2822  141.6362  164.0462 C.ar    1  UNL1        0.2312
     21 N         138.8783  143.0036  163.8885 N.ar    1  UNL1       -0.1892
     22 C         139.8009  143.5453  164.9399 C.ar    1  UNL1        0.2029
     23 N         140.1274  142.7196  166.1489 N.ar    1  UNL1       -0.2045
     24 C         139.5313  141.3522  166.3065 C.ar    1  UNL1        0.1732
     25 C         138.6087  140.8105  165.2552 C.ar    1  UNL1        0.1099
     26 C         138.1755  139.4388  165.6807 C.ar    1  UNL1        0.1283
     27 N         138.8304  139.1329  166.9950 N.ar    1  UNL1       -0.1606
     28 N         139.6683  140.3154  167.3818 N.ar    1  UNL1       -0.1936
     29 C         140.4976  140.4394  168.6255 C.ar    1  UNL1        0.1759
     30 N         139.9080  141.0493  169.8625 N.ar    1  UNL1       -0.2242
     31 C         140.7373  141.1732  171.1062 C.ar    1  UNL1        0.1006
     32 C         142.1564  140.6873  171.1129 C.ar    1  UNL1        0.0217
     33 C         142.7461  140.0773  169.8759 C.ar    1  UNL1        0.0161
     34 C         141.9167  139.9534  168.6322 C.ar    1  UNL1        0.0935
     35 CL        142.5065  139.3434  167.3952 Cl      1  UNL1       -0.0790
@<TRIPOS>BOND
     1     6     7    1
     2     7     8   ar
     3     8     9   ar
     4     9    10   ar
     5    10     2    1
     6     2     3   am
     7     3     4    2
     8     3     1    1
     9     1    13    1
    10    13    14    1
    11    14    15    1
    12    15    16    1
    13    16    17    1
    14    17    18    1
    15     1    19    1
    16    19    20    1
    17    20    21   ar
    18    21    22   ar
    19    22    23   ar
    20    23    24   ar
    21    24    25   ar
    22    25    26   ar
    23    26    27   ar
    24    27    28   ar
    25    28    29    1
    26    29    30   ar
    27    30    31   ar
    28    31    32   ar
    29    32    33   ar
    30    33    34   ar
    31    34    35    1
    32    10    11   ar
    33    11    12   ar
    34    12     7   ar
    35    18    15    1
    36    25    20   ar
    37    34    29   ar
    38    28    24   ar
    39     2     5    1
@<TRIPOS>MOLECULE
*****
 35 39 0 0 0
SMALL
GASTEIGER

@<TRIPOS>ATOM
      1 C         139.2363  138.0678  161.5565 C.3     1  UNL1        0.2722
      2 N         141.5177  138.4153  160.3629 N.am    1  UNL1       -0.2651
      3 C         140.0182  138.4100  160.3230 C.2     1  UNL1        0.2701
      4 O         139.3007  138.7470  159.0496 O.2     1  UNL1       -0.2707
      5 H         141.9886  138.1942  161.1987 H       1  UNL1        0.1564
      6 C         144.6454  139.7841  155.4291 C.3     1  UNL1        0.0538
      7 C         143.8635  139.4419  156.6625 C.ar    1  UNL1        0.0786
      8 C         143.5244  140.5128  157.6567 C.ar    1  UNL1        0.1150
      9 N         142.7425  140.1706  158.8902 N.ar    1  UNL1       -0.2262
     10 C         142.2996  138.7575  159.1295 C.ar    1  UNL1        0.1536
     11 C         142.6387  137.6867  158.1353 C.ar    1  UNL1        0.1328
     12 N         143.4207  138.0289  156.9018 N.ar    1  UNL1       -0.2436
     13 C         137.8096  138.5121  161.6874 C.3     1  UNL1        0.1950
     14 O         137.4557  139.9593  161.5131 O.3     1  UNL1       -0.3519
     15 C         137.9758  140.9804  162.4811 C.3     1  UNL1        0.1154
     16 C         139.3154  141.5972  162.7543 C.3     1  UNL1        0.0296
     17 C         138.7111  142.4245  163.8500 C.3     1  UNL1        0.0050
     18 C         137.3714  141.8076  163.5768 C.3     1  UNL1        0.0296
     19 O         139.8811  137.2813  162.6591 O.3     1  UNL1       -0.4517
     20 C         140.6674  137.9877  163.7234 C.ar    1  UNL1        0.2312
     21 N         142.1566  138.1144  163.5962 N.ar    1  UNL1       -0.1892
     22 C         142.9428  138.8207  164.6606 C.ar    1  UNL1        0.2029
     23 N         142.2398  139.4004  165.8522 N.ar    1  UNL1       -0.2045
     24 C         140.7507  139.2736  165.9794 C.ar    1  UNL1        0.1732
     25 C         139.9645  138.5673  164.9150 C.ar    1  UNL1        0.1099
     26 C         138.5177  138.5977  165.3102 C.ar    1  UNL1        0.1283
     27 N         138.4099  139.3228  166.6189 N.ar    1  UNL1       -0.1606
     28 N         139.7899  139.7406  167.0324 N.ar    1  UNL1       -0.1936
     29 C         140.1466  140.4931  168.2800 C.ar    1  UNL1        0.1759
     30 N         140.1813  139.7826  169.6005 N.ar    1  UNL1       -0.2242
     31 C         140.5379  140.5352  170.8481 C.ar    1  UNL1        0.1006
     32 C         140.8599  141.9984  170.7751 C.ar    1  UNL1        0.0217
     33 C         140.8252  142.7089  169.4546 C.ar    1  UNL1        0.0161
     34 C         140.4686  141.9564  168.2070 C.ar    1  UNL1        0.0935
     35 CL        140.4339  142.6670  166.8865 Cl      1  UNL1       -0.0790
@<TRIPOS>BOND
     1     6     7    1
     2     7     8   ar
     3     8     9   ar
     4     9    10   ar
     5    10     2    1
     6     2     3   am
     7     3     4    2
     8     3     1    1
     9     1    13    1
    10    13    14    1
    11    14    15    1
    12    15    16    1
    13    16    17    1
    14    17    18    1
    15     1    19    1
    16    19    20    1
    17    20    21   ar
    18    21    22   ar
    19    22    23   ar
    20    23    24   ar
    21    24    25   ar
    22    25    26   ar
    23    26    27   ar
    24    27    28   ar
    25    28    29    1
    26    29    30   ar
    27    30    31   ar
    28    31    32   ar
    29    32    33   ar
    30    33    34   ar
    31    34    35    1
    32    10    11   ar
    33    11    12   ar
    34    12     7   ar
    35    18    15    1
    36    25    20   ar
    37    34    29   ar
    38    28    24   ar
    39     2     5    1
@<TRIPOS>MOLECULE
*****
 35 39 0 0 0
SMALL
GASTEIGER

@<TRIPOS>ATOM
      1 C         140.9350  144.5211  160.2612 C.3     1  UNL1        0.2722
      2 N         138.8574  143.2565  159.3477 N.am    1  UNL1       -0.2651
      3 C         140.2745  143.7184  159.1796 C.2     1  UNL1        0.2701
      4 O         141.0313  143.3778  157.9301 O.2     1  UNL1       -0.2707
      5 H         138.3607  143.4800  160.1678 H       1  UNL1        0.1564
      6 C         136.2156  140.0460  155.0218 C.3     1  UNL1        0.0538
      7 C         136.8760  140.8486  156.1032 C.ar    1  UNL1        0.0786
      8 C         136.9470  142.3428  155.9913 C.ar    1  UNL1        0.1150
      9 N         137.6075  143.1454  157.0727 N.ar    1  UNL1       -0.2262
     10 C         138.1969  142.4539  158.2662 C.ar    1  UNL1        0.1536
     11 C         138.1260  140.9598  158.3782 C.ar    1  UNL1        0.1328
     12 N         137.4655  140.1571  157.2967 N.ar    1  UNL1       -0.2436
     13 C         140.1718  145.6050  160.9630 C.3     1  UNL1        0.1950
     14 O         138.8592  145.2941  161.6188 O.3     1  UNL1       -0.3519
     15 C         138.8311  144.6941  162.9934 C.3     1  UNL1        0.1154
     16 C         139.6009  144.9127  164.2620 C.3     1  UNL1        0.0296
     17 C         138.7913  143.8457  164.9373 C.3     1  UNL1        0.0050
     18 C         138.0214  143.6271  163.6686 C.3     1  UNL1        0.0296
     19 O         142.3586  144.2397  160.6408 O.3     1  UNL1       -0.4517
     20 C         142.7230  144.0275  162.0804 C.ar    1  UNL1        0.2312
     21 N         143.6729  144.9685  162.7602 N.ar    1  UNL1       -0.1892
     22 C         144.0372  144.7564  164.1997 C.ar    1  UNL1        0.2029
     23 N         143.4516  143.6032  164.9594 N.ar    1  UNL1       -0.2045
     24 C         142.5017  142.6621  164.2797 C.ar    1  UNL1        0.1732
     25 C         142.1374  142.8743  162.8402 C.ar    1  UNL1        0.1099
     26 C         141.1816  141.7899  162.4392 C.ar    1  UNL1        0.1283
     27 N         140.9553  140.9076  163.6309 N.ar    1  UNL1       -0.1606
     28 N         141.7712  141.4466  164.7684 N.ar    1  UNL1       -0.1936
     29 C         141.8437  140.8712  166.1517 C.ar    1  UNL1        0.1759
     30 N         141.0137  141.4602  167.2535 N.ar    1  UNL1       -0.2242
     31 C         141.0862  140.8848  168.6369 C.ar    1  UNL1        0.1006
     32 C         141.9889  139.7204  168.9184 C.ar    1  UNL1        0.0217
     33 C         142.8190  139.1314  167.8166 C.ar    1  UNL1        0.0161
     34 C         142.7464  139.7068  166.4333 C.ar    1  UNL1        0.0935
     35 CL        143.5765  139.1177  165.3315 Cl      1  UNL1       -0.0790
@<TRIPOS>BOND
     1     6     7    1
     2     7     8   ar
     3     8     9   ar
     4     9    10   ar
     5    10     2    1
     6     2     3   am
     7     3     4    2
     8     3     1    1
     9     1    13    1
    10    13    14    1
    11    14    15    1
    12    15    16    1
    13    16    17    1
    14    17    18    1
    15     1    19    1
    16    19    20    1
    17    20    21   ar
    18    21    22   ar
    19    22    23   ar
    20    23    24   ar
    21    24    25   ar
    22    25    26   ar
    23    26    27   ar
    24    27    28   ar
    25    28    29    1
    26    29    30   ar
    27    30    31   ar
    28    31    32   ar
    29    32    33   ar
    30    33    34   ar
    31    34    35    1
    32    10    11   ar
    33    11    12   ar
    34    12     7   ar
    35    18    15    1
    36    25    20   ar
    37    34    29   ar
    38    28    24   ar
    39     2     5    1
@<TRIPOS>MOLECULE
*****
 35 39 0 0 0
SMALL
GASTEIGER

@<TRIPOS>ATOM
      1 C         143.9230  140.1526  161.1781 C.3     1  UNL1        0.2722
      2 N         143.4295  142.5691  160.3613 N.am    1  UNL1       -0.2651
      3 C         143.1280  141.1000  160.3293 C.2     1  UNL1        0.2701
      4 O         142.0315  140.5785  159.4486 O.2     1  UNL1       -0.2707
      5 H         144.1492  142.9114  160.9393 H       1  UNL1        0.1564
      6 C         140.2498  146.3590  156.9664 C.3     1  UNL1        0.0538
      7 C         141.0447  145.4115  157.8151 C.ar    1  UNL1        0.0786
      8 C         140.6623  145.1869  159.2481 C.ar    1  UNL1        0.1150
      9 N         141.4572  144.2394  160.0968 N.ar    1  UNL1       -0.2262
     10 C         142.6346  143.5165  159.5126 C.ar    1  UNL1        0.1536
     11 C         143.0171  143.7412  158.0797 C.ar    1  UNL1        0.1328
     12 N         142.2221  144.6887  157.2309 N.ar    1  UNL1       -0.2436
     13 C         143.9168  138.6845  160.8705 C.3     1  UNL1        0.1950
     14 O         143.3811  137.7096  161.8769 O.3     1  UNL1       -0.3519
     15 C         141.9195  137.7068  162.2141 C.3     1  UNL1        0.1154
     16 C         140.6702  138.1631  161.5208 C.3     1  UNL1        0.0296
     17 C         139.8525  137.7028  162.6911 C.3     1  UNL1        0.0050
     18 C         141.1019  137.2465  163.3845 C.3     1  UNL1        0.0296
     19 O         144.7241  140.6732  162.3344 O.3     1  UNL1       -0.4517
     20 C         144.0281  141.2823  163.5153 C.ar    1  UNL1        0.2312
     21 N         143.6618  142.7368  163.5020 N.ar    1  UNL1       -0.1892
     22 C         142.9658  143.3457  164.6829 C.ar    1  UNL1        0.2029
     23 N         142.6360  142.5002  165.8772 N.ar    1  UNL1       -0.2045
     24 C         143.0023  141.0457  165.8905 C.ar    1  UNL1        0.1732
     25 C         143.6983  140.4367  164.7096 C.ar    1  UNL1        0.1099
     26 C         143.9334  138.9855  165.0077 C.ar    1  UNL1        0.1283
     27 N         143.3827  138.6977  166.3729 N.ar    1  UNL1       -0.1606
     28 N         142.8072  139.9709  166.9185 N.ar    1  UNL1       -0.1936
     29 C         142.1517  140.1398  168.2571 C.ar    1  UNL1        0.1759
     30 N         142.9917  140.3394  169.4837 N.ar    1  UNL1       -0.2242
     31 C         142.3362  140.5083  170.8223 C.ar    1  UNL1        0.1006
     32 C         140.8407  140.4774  170.9343 C.ar    1  UNL1        0.0217
     33 C         140.0008  140.2777  169.7077 C.ar    1  UNL1        0.0161
     34 C         140.6562  140.1089  168.3692 C.ar    1  UNL1        0.0935
     35 CL        139.8162  139.9092  167.1426 Cl      1  UNL1       -0.0790
@<TRIPOS>BOND
     1     6     7    1
     2     7     8   ar
     3     8     9   ar
     4     9    10   ar
     5    10     2    1
     6     2     3   am
     7     3     4    2
     8     3     1    1
     9     1    13    1
    10    13    14    1
    11    14    15    1
    12    15    16    1
    13    16    17    1
    14    17    18    1
    15     1    19    1
    16    19    20    1
    17    20    21   ar
    18    21    22   ar
    19    22    23   ar
    20    23    24   ar
    21    24    25   ar
    22    25    26   ar
    23    26    27   ar
    24    27    28   ar
    25    28    29    1
    26    29    30   ar
    27    30    31   ar
    28    31    32   ar
    29    32    33   ar
    30    33    34   ar
    31    34    35    1
    32    10    11   ar
    33    11    12   ar
    34    12     7   ar
    35    18    15    1
    36    25    20   ar
    37    34    29   ar
    38    28    24   ar
    39     2     5    1
@<TRIPOS>MOLECULE
*****
 35 39 0 0 0
SMALL
GASTEIGER

@<TRIPOS>ATOM
      1 C         137.7169  140.5179  161.5428 C.3     1  UNL1        0.2722
      2 N         138.3277  139.7647  159.1325 N.am    1  UNL1       -0.2651
      3 C         138.1227  140.8576  160.1392 C.2     1  UNL1        0.2701
      4 O         138.3236  142.2901  159.7424 O.2     1  UNL1       -0.2707
      5 H         138.1959  138.8244  159.3930 H       1  UNL1        0.1564
      6 C         139.9511  141.1230  153.5183 C.3     1  UNL1        0.0538
      7 C         139.5453  140.7834  154.9219 C.ar    1  UNL1        0.0786
      8 C         138.0918  140.6818  155.2786 C.ar    1  UNL1        0.1150
      9 N         137.6860  140.3422  156.6821 N.ar    1  UNL1       -0.2262
     10 C         138.7335  140.1042  157.7290 C.ar    1  UNL1        0.1536
     11 C         140.1869  140.2059  157.3723 C.ar    1  UNL1        0.1328
     12 N         140.5929  140.5455  155.9687 N.ar    1  UNL1       -0.2436
     13 C         137.8593  139.1118  162.0453 C.3     1  UNL1        0.1950
     14 O         139.0835  138.3144  161.7055 O.3     1  UNL1       -0.3519
     15 C         139.9694  137.7973  162.8001 C.3     1  UNL1        0.1154
     16 C         141.4341  137.5003  162.9279 C.3     1  UNL1        0.0296
     17 C         141.2222  137.0662  164.3480 C.3     1  UNL1        0.0050
     18 C         139.7575  137.3632  164.2202 C.3     1  UNL1        0.0296
     19 O         137.1686  141.5844  162.4439 O.3     1  UNL1       -0.4517
     20 C         138.0968  142.3893  163.3045 C.ar    1  UNL1        0.2312
     21 N         138.4799  143.7811  162.8970 N.ar    1  UNL1       -0.1892
     22 C         139.4080  144.5859  163.7576 C.ar    1  UNL1        0.2029
     23 N         139.9531  143.9989  165.0258 N.ar    1  UNL1       -0.2045
     24 C         139.5701  142.6071  165.4334 C.ar    1  UNL1        0.1732
     25 C         138.6419  141.8023  164.5727 C.ar    1  UNL1        0.1099
     26 C         138.4440  140.4670  165.2269 C.ar    1  UNL1        0.1283
     27 N         139.2499  140.4466  166.4918 N.ar    1  UNL1       -0.1606
     28 N         139.9458  141.7693  166.6194 N.ar    1  UNL1       -0.1936
     29 C         140.8575  142.1817  167.7369 C.ar    1  UNL1        0.1759
     30 N         140.2995  142.8812  168.9407 N.ar    1  UNL1       -0.2242
     31 C         141.2112  143.2936  170.0582 C.ar    1  UNL1        0.1006
     32 C         142.6809  143.0065  169.9719 C.ar    1  UNL1        0.0217
     33 C         143.2389  142.3069  168.7681 C.ar    1  UNL1        0.0161
     34 C         142.3272  141.8945  167.6506 C.ar    1  UNL1        0.0935
     35 CL        142.8853  141.1950  166.4468 Cl      1  UNL1       -0.0790
@<TRIPOS>BOND
     1     6     7    1
     2     7     8   ar
     3     8     9   ar
     4     9    10   ar
     5    10     2    1
     6     2     3   am
     7     3     4    2
     8     3     1    1
     9     1    13    1
    10    13    14    1
    11    14    15    1
    12    15    16    1
    13    16    17    1
    14    17    18    1
    15     1    19    1
    16    19    20    1
    17    20    21   ar
    18    21    22   ar
    19    22    23   ar
    20    23    24   ar
    21    24    25   ar
    22    25    26   ar
    23    26    27   ar
    24    27    28   ar
    25    28    29    1
    26    29    30   ar
    27    30    31   ar
    28    31    32   ar
    29    32    33   ar
    30    33    34   ar
    31    34    35    1
    32    10    11   ar
    33    11    12   ar
    34    12     7   ar
    35    18    15    1
    36    25    20   ar
    37    34    29   ar
    38    28    24   ar
    39     2     5    1
@<TRIPOS>MOLECULE
*****
 35 39 0 0 0
SMALL
GASTEIGER

@<TRIPOS>ATOM
      1 C         141.6331  139.1094  158.4959 C.3     1  UNL1        0.2722
      2 N         142.9657  137.0976  157.5330 N.am    1  UNL1       -0.2651
      3 C         141.6750  137.8459  157.6884 C.2     1  UNL1        0.2701
      4 O         140.4263  137.3309  157.0362 O.2     1  UNL1       -0.2707
      5 H         143.7853  137.4356  157.9611 H       1  UNL1        0.1564
      6 C         143.1335  132.0441  154.3030 C.3     1  UNL1        0.0538
      7 C         143.0915  133.3074  155.1105 C.ar    1  UNL1        0.0786
      8 C         143.2475  133.2502  156.6013 C.ar    1  UNL1        0.1150
      9 N         143.2056  134.5136  157.4088 N.ar    1  UNL1       -0.2262
     10 C         143.0076  135.8342  156.7255 C.ar    1  UNL1        0.1536
     11 C         142.8516  135.8914  155.2348 C.ar    1  UNL1        0.1328
     12 N         142.8936  134.6280  154.4272 N.ar    1  UNL1       -0.2436
     13 C         142.8664  139.9517  158.6351 C.3     1  UNL1        0.1950
     14 O         144.0790  139.3982  159.3232 O.3     1  UNL1       -0.3519
     15 C         144.0806  139.2208  160.8127 C.3     1  UNL1        0.1154
     16 C         144.0261  138.0437  161.7406 C.3     1  UNL1        0.0296
     17 C         144.0829  138.9700  162.9191 C.3     1  UNL1        0.0050
     18 C         144.1374  140.1472  161.9911 C.3     1  UNL1        0.0296
     19 O         140.3579  139.5304  159.1642 O.3     1  UNL1       -0.4517
     20 C         140.4026  140.2483  160.4805 C.ar    1  UNL1        0.2312
     21 N         140.3738  141.7475  160.5185 N.ar    1  UNL1       -0.1892
     22 C         140.4184  142.4653  161.8348 C.ar    1  UNL1        0.2029
     23 N         140.4918  141.6840  163.1131 N.ar    1  UNL1       -0.2045
     24 C         140.5206  140.1848  163.0751 C.ar    1  UNL1        0.1732
     25 C         140.4760  139.4669  161.7588 C.ar    1  UNL1        0.1099
     26 C         140.5183  137.9927  162.0331 C.ar    1  UNL1        0.1283
     27 N         140.5891  137.7996  163.5189 N.ar    1  UNL1       -0.1606
     28 N         140.5906  139.1543  164.1629 N.ar    1  UNL1       -0.1936
     29 C         140.6513  139.4302  165.6360 C.ar    1  UNL1        0.1759
     30 N         141.9763  139.4690  166.3379 N.ar    1  UNL1       -0.2242
     31 C         142.0370  139.7448  167.8110 C.ar    1  UNL1        0.1006
     32 C         140.7726  139.9819  168.5824 C.ar    1  UNL1        0.0217
     33 C         139.4475  139.9431  167.8806 C.ar    1  UNL1        0.0161
     34 C         139.3868  139.6673  166.4074 C.ar    1  UNL1        0.0935
     35 CL        138.0617  139.6285  165.7056 Cl      1  UNL1       -0.0790
@<TRIPOS>BOND
     1     6     7    1
     2     7     8   ar
     3     8     9   ar
     4     9    10   ar
     5    10     2    1
     6     2     3   am
     7     3     4    2
     8     3     1    1
     9     1    13    1
    10    13    14    1
    11    14    15    1
    12    15    16    1
    13    16    17    1
    14    17    18    1
    15     1    19    1
    16    19    20    1
    17    20    21   ar
    18    21    22   ar
    19    22    23   ar
    20    23    24   ar
    21    24    25   ar
    22    25    26   ar
    23    26    27   ar
    24    27    28   ar
    25    28    29    1
    26    29    30   ar
    27    30    31   ar
    28    31    32   ar
    29    32    33   ar
    30    33    34   ar
    31    34    35    1
    32    10    11   ar
    33    11    12   ar
    34    12     7   ar
    35    18    15    1
    36    25    20   ar
    37    34    29   ar
    38    28    24   ar
    39     2     5    1
@<TRIPOS>MOLECULE
*****
 35 39 0 0 0
SMALL
GASTEIGER

@<TRIPOS>ATOM
      1 C         143.2056  141.9617  160.1747 C.3     1  UNL1        0.2722
      2 N         142.6798  144.1806  158.9297 N.am    1  UNL1       -0.2651
      3 C         142.4565  142.7085  159.1110 C.2     1  UNL1        0.2701
      4 O         141.4842  141.9831  158.2288 O.2     1  UNL1       -0.2707
      5 H         143.3180  144.6567  159.5087 H       1  UNL1        0.1564
      6 C         139.6836  147.1677  154.6753 C.3     1  UNL1        0.0538
      7 C         140.4327  146.4209  155.7388 C.ar    1  UNL1        0.0786
      8 C         139.9605  146.4676  157.1619 C.ar    1  UNL1        0.1150
      9 N         140.7096  145.7208  158.2255 N.ar    1  UNL1       -0.2262
     10 C         141.9308  144.9274  157.8661 C.ar    1  UNL1        0.1536
     11 C         142.4029  144.8807  156.4431 C.ar    1  UNL1        0.1328
     12 N         141.6538  145.6275  155.3795 N.ar    1  UNL1       -0.2436
     13 C         144.4855  142.5198  160.7228 C.3     1  UNL1        0.1950
     14 O         144.4570  143.7265  161.6134 O.3     1  UNL1       -0.3519
     15 C         144.3439  143.5591  163.0997 C.3     1  UNL1        0.1154
     16 C         143.5171  144.1933  164.1786 C.3     1  UNL1        0.0296
     17 C         144.1840  143.3223  165.2018 C.3     1  UNL1        0.0050
     18 C         145.0108  142.6881  164.1228 C.3     1  UNL1        0.0296
     19 O         142.6748  140.6569  160.6901 O.3     1  UNL1       -0.4517
     20 C         142.7520  140.3419  162.1547 C.ar    1  UNL1        0.2312
     21 N         143.8130  139.4137  162.6673 N.ar    1  UNL1       -0.1892
     22 C         143.8901  139.0987  164.1318 C.ar    1  UNL1        0.2029
     23 N         142.9064  139.7119  165.0837 N.ar    1  UNL1       -0.2045
     24 C         141.8454  140.6401  164.5711 C.ar    1  UNL1        0.1732
     25 C         141.7683  140.9551  163.1066 C.ar    1  UNL1        0.1099
     26 C         140.6216  141.8989  162.8952 C.ar    1  UNL1        0.1283
     27 N         139.9902  142.1672  164.2291 N.ar    1  UNL1       -0.1606
     28 N         140.7465  141.3892  165.2648 N.ar    1  UNL1       -0.1936
     29 C         140.4552  141.3646  166.7361 C.ar    1  UNL1        0.1759
     30 N         140.9878  142.4495  167.6244 N.ar    1  UNL1       -0.2242
     31 C         140.6964  142.4250  169.0956 C.ar    1  UNL1        0.1006
     32 C         139.8723  141.3154  169.6785 C.ar    1  UNL1        0.0217
     33 C         139.3397  140.2305  168.7902 C.ar    1  UNL1        0.0161
     34 C         139.6311  140.2551  167.3190 C.ar    1  UNL1        0.0935
     35 CL        139.0983  139.1702  166.4307 Cl      1  UNL1       -0.0790
@<TRIPOS>BOND
     1     6     7    1
     2     7     8   ar
     3     8     9   ar
     4     9    10   ar
     5    10     2    1
     6     2     3   am
     7     3     4    2
     8     3     1    1
     9     1    13    1
    10    13    14    1
    11    14    15    1
    12    15    16    1
    13    16    17    1
    14    17    18    1
    15     1    19    1
    16    19    20    1
    17    20    21   ar
    18    21    22   ar
    19    22    23   ar
    20    23    24   ar
    21    24    25   ar
    22    25    26   ar
    23    26    27   ar
    24    27    28   ar
    25    28    29    1
    26    29    30   ar
    27    30    31   ar
    28    31    32   ar
    29    32    33   ar
    30    33    34   ar
    31    34    35    1
    32    10    11   ar
    33    11    12   ar
    34    12     7   ar
    35    18    15    1
    36    25    20   ar
    37    34    29   ar
    38    28    24   ar
    39     2     5    1
@<TRIPOS>MOLECULE
*****
 35 39 0 0 0
SMALL
GASTEIGER

@<TRIPOS>ATOM
      1 C         141.0952  143.7257  160.7916 C.3     1  UNL1        0.2722
      2 N         139.0906  143.3679  159.1781 N.am    1  UNL1       -0.2651
      3 C         140.5318  143.1445  159.5287 C.2     1  UNL1        0.2701
      4 O         141.4097  142.3401  158.6164 O.2     1  UNL1       -0.2707
      5 H         138.5144  143.8959  159.7769 H       1  UNL1        0.1564
      6 C         136.8369  141.0435  154.1266 C.3     1  UNL1        0.0538
      7 C         137.4003  141.6246  155.3895 C.ar    1  UNL1        0.0786
      8 C         137.2292  140.8984  156.6908 C.ar    1  UNL1        0.1150
      9 N         137.7926  141.4795  157.9537 N.ar    1  UNL1       -0.2262
     10 C         138.5272  142.7868  157.9152 C.ar    1  UNL1        0.1536
     11 C         138.6983  143.5130  156.6140 C.ar    1  UNL1        0.1328
     12 N         138.1348  142.9319  155.3510 N.ar    1  UNL1       -0.2436
     13 C         140.7594  145.1339  161.1843 C.3     1  UNL1        0.1950
     14 O         139.3683  145.4774  161.6278 O.3     1  UNL1       -0.3519
     15 C         138.8178  144.8893  162.8932 C.3     1  UNL1        0.1154
     16 C         137.6038  144.0829  163.2476 C.3     1  UNL1        0.0296
     17 C         138.0395  144.0577  164.6828 C.3     1  UNL1        0.0050
     18 C         139.2535  144.8642  164.3283 C.3     1  UNL1        0.0296
     19 O         141.9945  142.8986  161.6619 O.3     1  UNL1       -0.4517
     20 C         141.4489  142.2447  162.8968 C.ar    1  UNL1        0.2312
     21 N         140.1533  141.4912  162.8365 N.ar    1  UNL1       -0.1892
     22 C         139.6079  140.8374  164.0714 C.ar    1  UNL1        0.2029
     23 N         140.3581  140.9369  165.3665 N.ar    1  UNL1       -0.2045
     24 C         141.6537  141.6904  165.4267 C.ar    1  UNL1        0.1732
     25 C         142.1991  142.3442  164.1919 C.ar    1  UNL1        0.1099
     26 C         143.4911  143.0147  164.5545 C.ar    1  UNL1        0.1283
     27 N         143.7441  142.7752  166.0134 N.ar    1  UNL1       -0.1606
     28 N         142.6085  141.9567  166.5525 N.ar    1  UNL1       -0.1936
     29 C         142.4547  141.4870  167.9687 C.ar    1  UNL1        0.1759
     30 N         142.1242  142.4693  169.0530 N.ar    1  UNL1       -0.2242
     31 C         141.9704  141.9996  170.4693 C.ar    1  UNL1        0.1006
     32 C         142.1472  140.5475  170.8012 C.ar    1  UNL1        0.0217
     33 C         142.4777  139.5652  169.7169 C.ar    1  UNL1        0.0161
     34 C         142.6315  140.0349  168.3007 C.ar    1  UNL1        0.0935
     35 CL        142.9620  139.0525  167.2165 Cl      1  UNL1       -0.0790
@<TRIPOS>BOND
     1     6     7    1
     2     7     8   ar
     3     8     9   ar
     4     9    10   ar
     5    10     2    1
     6     2     3   am
     7     3     4    2
     8     3     1    1
     9     1    13    1
    10    13    14    1
    11    14    15    1
    12    15    16    1
    13    16    17    1
    14    17    18    1
    15     1    19    1
    16    19    20    1
    17    20    21   ar
    18    21    22   ar
    19    22    23   ar
    20    23    24   ar
    21    24    25   ar
    22    25    26   ar
    23    26    27   ar
    24    27    28   ar
    25    28    29    1
    26    29    30   ar
    27    30    31   ar
    28    31    32   ar
    29    32    33   ar
    30    33    34   ar
    31    34    35    1
    32    10    11   ar
    33    11    12   ar
    34    12     7   ar
    35    18    15    1
    36    25    20   ar
    37    34    29   ar
    38    28    24   ar
    39     2     5    1
@<TRIPOS>MOLECULE
*****
 35 39 0 0 0
SMALL
GASTEIGER

@<TRIPOS>ATOM
      1 C         139.3946  141.4369  161.1071 C.3     1  UNL1        0.2722
      2 N         140.3213  139.2350  160.0858 N.am    1  UNL1       -0.2651
      3 C         139.9853  140.6903  159.9478 C.2     1  UNL1        0.2701
      4 O         140.2398  141.3991  158.6506 O.2     1  UNL1       -0.2707
      5 H         140.1542  138.7698  160.9372 H       1  UNL1        0.1564
      6 C         142.6840  136.2488  155.4490 C.3     1  UNL1        0.0538
      7 C         142.0934  136.9953  156.6082 C.ar    1  UNL1        0.0786
      8 C         140.6220  137.2853  156.6423 C.ar    1  UNL1        0.1150
      9 N         140.0313  138.0318  157.8015 N.ar    1  UNL1       -0.2262
     10 C         140.9120  138.4884  158.9266 C.ar    1  UNL1        0.1536
     11 C         142.3833  138.1985  158.8926 C.ar    1  UNL1        0.1328
     12 N         142.9740  137.4519  157.7334 N.ar    1  UNL1       -0.2436
     13 C         138.0936  140.9881  161.7037 C.3     1  UNL1        0.1950
     14 O         137.8586  139.5331  161.9825 O.3     1  UNL1       -0.3519
     15 C         138.4476  138.8996  163.2080 C.3     1  UNL1        0.1154
     16 C         138.4392  139.2166  164.6740 C.3     1  UNL1        0.0296
     17 C         139.2806  138.0037  164.9411 C.3     1  UNL1        0.0050
     18 C         139.2889  137.6868  163.4750 C.3     1  UNL1        0.0296
     19 O         140.1050  142.6322  161.6697 O.3     1  UNL1       -0.4517
     20 C         139.9182  143.0063  163.1103 C.ar    1  UNL1        0.2312
     21 N         139.0495  144.1733  163.4756 N.ar    1  UNL1       -0.1892
     22 C         138.8627  144.5473  164.9161 C.ar    1  UNL1        0.2029
     23 N         139.5447  143.7544  165.9914 N.ar    1  UNL1       -0.2045
     24 C         140.4134  142.5874  165.6261 C.ar    1  UNL1        0.1732
     25 C         140.6001  142.2134  164.1856 C.ar    1  UNL1        0.1099
     26 C         141.5093  141.0215  164.1302 C.ar    1  UNL1        0.1283
     27 N         141.8845  140.6590  165.5365 N.ar    1  UNL1       -0.1606
     28 N         141.2071  141.6268  166.4610 N.ar    1  UNL1       -0.1936
     29 C         141.3061  141.6329  167.9577 C.ar    1  UNL1        0.1759
     30 N         142.3370  142.4842  168.6378 N.ar    1  UNL1       -0.2242
     31 C         142.4361  142.4903  170.1345 C.ar    1  UNL1        0.1006
     32 C         141.5042  141.6450  170.9512 C.ar    1  UNL1        0.0217
     33 C         140.4733  140.7937  170.2712 C.ar    1  UNL1        0.0161
     34 C         140.3742  140.7876  168.7745 C.ar    1  UNL1        0.0935
     35 CL        139.3433  139.9363  168.0946 Cl      1  UNL1       -0.0790
@<TRIPOS>BOND
     1     6     7    1
     2     7     8   ar
     3     8     9   ar
     4     9    10   ar
     5    10     2    1
     6     2     3   am
     7     3     4    2
     8     3     1    1
     9     1    13    1
    10    13    14    1
    11    14    15    1
    12    15    16    1
    13    16    17    1
    14    17    18    1
    15     1    19    1
    16    19    20    1
    17    20    21   ar
    18    21    22   ar
    19    22    23   ar
    20    23    24   ar
    21    24    25   ar
    22    25    26   ar
    23    26    27   ar
    24    27    28   ar
    25    28    29    1
    26    29    30   ar
    27    30    31   ar
    28    31    32   ar
    29    32    33   ar
    30    33    34   ar
    31    34    35    1
    32    10    11   ar
    33    11    12   ar
    34    12     7   ar
    35    18    15    1
    36    25    20   ar
    37    34    29   ar
    38    28    24   ar
    39     2     5    1
