@<TRIPOS>MOLECULE
*****
 35 39 0 0 0
SMALL
GASTEIGER

@<TRIPOS>ATOM
      1 C         143.3562  142.5127  167.0710 C.3     1  UNL1        0.0285
      2 C         142.5641  141.6082  166.1741 C.3     1  UNL1        0.1321
      3 C         142.9769  141.4206  164.7444 C.3     1  UNL1        0.2279
      4 O         142.1848  140.5160  163.8475 O.3     1  UNL1       -0.4707
      5 C         140.9798  139.7992  164.3804 C.ar    1  UNL1        0.1697
      6 C         140.1877  138.8947  163.4835 C.ar    1  UNL1        0.1115
      7 C         138.9827  138.1778  164.0164 C.ar    1  UNL1        0.1564
      8 F         138.1905  137.2733  163.1195 F       1  UNL1       -0.2028
      9 C         138.5697  138.3654  165.4462 C.ar    1  UNL1        0.0326
     10 C         139.3619  139.2699  166.3431 C.ar    1  UNL1        0.0214
     11 C         138.9490  139.4576  167.7729 C.ar    1  UNL1        0.0075
     12 C         139.7411  140.3621  168.6697 C.ar    1  UNL1        0.0702
     13 C         140.9461  141.0790  168.1369 C.ar    1  UNL1        0.2620
     14 O         141.7382  141.9835  169.0337 O.2     1  UNL1       -0.2669
     15 N         141.3590  140.8913  166.7070 N.ar    1  UNL1       -0.2909
     16 C         140.5669  139.9868  165.8102 C.ar    1  UNL1        0.0980
     17 N         140.6006  138.7070  162.0538 N.pl3   1  UNL1       -0.3033
     18 C         141.9282  138.1945  161.5794 C.3     1  UNL1        0.0911
     19 C         141.9065  138.1697  160.0797 C.3     1  UNL1        0.0251
     20 C         142.9346  137.7586  159.0678 C.3     1  UNL1        0.0316
     21 C         142.6216  137.8446  157.6032 C.3     1  UNL1        0.1221
     22 C         141.2807  138.3417  157.1508 C.3     1  UNL1        0.0453
     23 C         140.2527  138.7528  158.1627 C.3     1  UNL1        0.0549
     24 N         138.9117  139.2498  157.7103 N.3     1  UNL1       -0.3221
     25 C         140.5655  138.6668  159.6272 C.3     1  UNL1        0.0358
     26 C         139.7584  138.9989  160.8472 C.3     1  UNL1        0.0923
     27 H         138.3431  139.4828  158.5244 H       1  UNL1        0.1188
     28 H         138.4456  138.5235  157.1666 H       1  UNL1        0.1188
     29 O         143.6497  137.4336  156.5912 O.3     1  UNL1       -0.3024
     30 C         143.6143  136.0538  156.0040 C.3     1  UNL1        0.4497
     31 F         143.2601  135.8625  154.5590 F       1  UNL1       -0.1663
     32 F         143.9330  134.8653  156.8618 F       1  UNL1       -0.1663
     33 C         139.3282  140.5497  170.0996 C.2     1  UNL1        0.0775
     34 O         139.3591  139.3879  171.0478 O.co2   1  UNL1       -0.5444
     35 O         138.8843  141.8992  170.5811 O.co2   1  UNL1       -0.5444
@<TRIPOS>UNITY_ATOM_ATTR
34 1
charge -1
@<TRIPOS>BOND
     1     2     1    1
     2     2     3    1
     3     3     4    1
     4     4     5    1
     5     5     6   ar
     6     6    17    1
     7    17    18    1
     8    19    18    1
     9    19    20    1
    10    20    21    1
    11    21    29    1
    12    29    30    1
    13    30    31    1
    14    30    32    1
    15    21    22    1
    16    22    23    1
    17    23    24    1
    18    23    25    1
    19    25    26    1
    20     6     7   ar
    21     7     8    1
    22     7     9   ar
    23     9    10   ar
    24    10    11   ar
    25    11    12   ar
    26    12    33    1
    27    33    34   ar
    28    33    35   ar
    29    12    13   ar
    30    13    14    2
    31    13    15   ar
    32    15    16   ar
    33    15     2    1
    34    16     5   ar
    35    26    17    1
    36    16    10   ar
    37    25    19    1
    38    24    27    1
    39    24    28    1
@<TRIPOS>MOLECULE
*****
 35 39 0 0 0
SMALL
GASTEIGER

@<TRIPOS>ATOM
      1 C         137.7423  139.0662  166.5112 C.3     1  UNL1        0.0285
      2 C         138.9406  139.8274  166.0266 C.3     1  UNL1        0.1321
      3 C         139.1823  139.9881  164.5550 C.3     1  UNL1        0.2279
      4 O         140.3805  140.7493  164.0705 O.3     1  UNL1       -0.4707
      5 C         141.3370  141.3499  165.0576 C.ar    1  UNL1        0.1697
      6 C         142.5353  142.1111  164.5731 C.ar    1  UNL1        0.1115
      7 C         143.4918  142.7116  165.5602 C.ar    1  UNL1        0.1564
      8 F         144.6900  143.4728  165.0757 F       1  UNL1       -0.2028
      9 C         143.2501  142.5510  167.0319 C.ar    1  UNL1        0.0326
     10 C         142.0518  141.7897  167.5164 C.ar    1  UNL1        0.0214
     11 C         141.8101  141.6291  168.9880 C.ar    1  UNL1        0.0075
     12 C         140.6119  140.8678  169.4725 C.ar    1  UNL1        0.0702
     13 C         139.6553  140.2673  168.4854 C.ar    1  UNL1        0.2620
     14 O         138.4571  139.5061  168.9700 O.2     1  UNL1       -0.2669
     15 N         139.8971  140.4280  167.0137 N.ar    1  UNL1       -0.2909
     16 C         141.0953  141.1892  166.5292 C.ar    1  UNL1        0.0980
     17 N         142.7770  142.2718  163.1015 N.pl3   1  UNL1       -0.3033
     18 C         143.5337  141.3199  162.2231 C.3     1  UNL1        0.0911
     19 C         143.5289  141.8723  160.8286 C.3     1  UNL1        0.0251
     20 C         144.1180  141.3648  159.5459 C.3     1  UNL1        0.0316
     21 C         143.9476  142.1507  158.2796 C.3     1  UNL1        0.1221
     22 C         143.1880  143.4440  158.2960 C.3     1  UNL1        0.0453
     23 C         142.5989  143.9515  159.5787 C.3     1  UNL1        0.0549
     24 N         141.8393  145.2449  159.5952 N.3     1  UNL1       -0.3221
     25 C         142.7693  143.1657  160.8450 C.3     1  UNL1        0.0358
     26 C         142.3046  143.4126  162.2497 C.3     1  UNL1        0.0923
     27 H         141.5121  145.4350  160.5424 H       1  UNL1        0.1188
     28 H         141.0391  145.1772  158.9662 H       1  UNL1        0.1188
     29 O         144.5367  141.6431  156.9969 O.3     1  UNL1       -0.3024
     30 C         145.9981  141.8317  156.7164 C.3     1  UNL1        0.4497
     31 F         146.6560  141.0576  155.6128 F       1  UNL1       -0.1663
     32 F         146.8016  142.7944  157.5396 F       1  UNL1       -0.1663
     33 C         140.3701  140.7072  170.9442 C.2     1  UNL1        0.0775
     34 O         139.7981  139.4261  171.4749 O.co2   1  UNL1       -0.5444
     35 O         140.7005  141.8276  171.8852 O.co2   1  UNL1       -0.5444
@<TRIPOS>UNITY_ATOM_ATTR
34 1
charge -1
@<TRIPOS>BOND
     1     2     1    1
     2     2     3    1
     3     3     4    1
     4     4     5    1
     5     5     6   ar
     6     6    17    1
     7    17    18    1
     8    19    18    1
     9    19    20    1
    10    20    21    1
    11    21    29    1
    12    29    30    1
    13    30    31    1
    14    30    32    1
    15    21    22    1
    16    22    23    1
    17    23    24    1
    18    23    25    1
    19    25    26    1
    20     6     7   ar
    21     7     8    1
    22     7     9   ar
    23     9    10   ar
    24    10    11   ar
    25    11    12   ar
    26    12    33    1
    27    33    34   ar
    28    33    35   ar
    29    12    13   ar
    30    13    14    2
    31    13    15   ar
    32    15    16   ar
    33    15     2    1
    34    16     5   ar
    35    26    17    1
    36    16    10   ar
    37    25    19    1
    38    24    27    1
    39    24    28    1
@<TRIPOS>MOLECULE
*****
 35 39 0 0 0
SMALL
GASTEIGER

@<TRIPOS>ATOM
      1 C         137.4544  138.3683  167.6371 C.3     1  UNL1        0.0285
      2 C         138.4987  138.9903  166.7582 C.3     1  UNL1        0.1321
      3 C         138.6187  138.5700  165.3233 C.3     1  UNL1        0.2279
      4 O         139.6631  139.1920  164.4444 O.3     1  UNL1       -0.4707
      5 C         140.5874  140.2343  165.0004 C.ar    1  UNL1        0.1697
      6 C         141.6317  140.8563  164.1215 C.ar    1  UNL1        0.1115
      7 C         142.5561  141.8986  164.6774 C.ar    1  UNL1        0.1564
      8 F         143.6004  142.5207  163.7985 F       1  UNL1       -0.2028
      9 C         142.4361  142.3190  166.1124 C.ar    1  UNL1        0.0326
     10 C         141.3918  141.6970  166.9913 C.ar    1  UNL1        0.0214
     11 C         141.2718  142.1173  168.4261 C.ar    1  UNL1        0.0075
     12 C         140.2274  141.4953  169.3051 C.ar    1  UNL1        0.0702
     13 C         139.3031  140.4530  168.7491 C.ar    1  UNL1        0.2620
     14 O         138.2587  139.8310  169.6280 O.2     1  UNL1       -0.2669
     15 N         139.4231  140.0326  167.3141 N.ar    1  UNL1       -0.2909
     16 C         140.4674  140.6546  166.4352 C.ar    1  UNL1        0.0980
     17 N         141.7517  140.4360  162.6866 N.pl3   1  UNL1       -0.3033
     18 C         142.7089  139.4166  162.1435 C.3     1  UNL1        0.0911
     19 C         142.4844  139.3118  160.6641 C.3     1  UNL1        0.0251
     20 C         143.1362  138.4705  159.6071 C.3     1  UNL1        0.0316
     21 C         142.6922  138.5838  158.1788 C.3     1  UNL1        0.1221
     22 C         141.5964  139.5385  157.8075 C.3     1  UNL1        0.0453
     23 C         140.9446  140.3798  158.8645 C.3     1  UNL1        0.0549
     24 N         139.8488  141.3344  158.4932 N.3     1  UNL1       -0.3221
     25 C         141.3885  140.2665  160.2928 C.3     1  UNL1        0.0358
     26 C         140.9358  140.9613  161.5428 C.3     1  UNL1        0.0923
     27 H         139.5235  141.8203  159.3290 H       1  UNL1        0.1188
     28 H         139.0741  140.8175  158.0772 H       1  UNL1        0.1188
     29 O         143.3441  137.7425  157.1218 O.3     1  UNL1       -0.3024
     30 C         142.8345  136.3594  156.8441 C.3     1  UNL1        0.4497
     31 F         143.7815  135.1961  156.8491 F       1  UNL1       -0.1663
     32 F         141.3779  136.1394  156.5615 F       1  UNL1       -0.1663
     33 C         140.1074  141.9157  170.7400 C.2     1  UNL1        0.0775
     34 O         140.7001  141.0639  171.8231 O.co2   1  UNL1       -0.5444
     35 O         139.3948  143.1878  171.0917 O.co2   1  UNL1       -0.5444
@<TRIPOS>UNITY_ATOM_ATTR
34 1
charge -1
@<TRIPOS>BOND
     1     2     1    1
     2     2     3    1
     3     3     4    1
     4     4     5    1
     5     5     6   ar
     6     6    17    1
     7    17    18    1
     8    19    18    1
     9    19    20    1
    10    20    21    1
    11    21    29    1
    12    29    30    1
    13    30    31    1
    14    30    32    1
    15    21    22    1
    16    22    23    1
    17    23    24    1
    18    23    25    1
    19    25    26    1
    20     6     7   ar
    21     7     8    1
    22     7     9   ar
    23     9    10   ar
    24    10    11   ar
    25    11    12   ar
    26    12    33    1
    27    33    34   ar
    28    33    35   ar
    29    12    13   ar
    30    13    14    2
    31    13    15   ar
    32    15    16   ar
    33    15     2    1
    34    16     5   ar
    35    26    17    1
    36    16    10   ar
    37    25    19    1
    38    24    27    1
    39    24    28    1
@<TRIPOS>MOLECULE
*****
 35 39 0 0 0
SMALL
GASTEIGER

@<TRIPOS>ATOM
      1 C         137.7520  138.7460  167.1930 C.3     1  UNL1        0.0285
      2 C         138.9003  139.3958  166.4796 C.3     1  UNL1        0.1321
      3 C         139.1136  139.1438  165.0164 C.3     1  UNL1        0.2279
      4 O         140.2620  139.7937  164.3030 O.3     1  UNL1       -0.4707
      5 C         141.1971  140.6956  165.0528 C.ar    1  UNL1        0.1697
      6 C         142.3454  141.3454  164.3394 C.ar    1  UNL1        0.1115
      7 C         143.2805  142.2473  165.0891 C.ar    1  UNL1        0.1564
      8 F         144.4289  142.8972  164.3757 F       1  UNL1       -0.2028
      9 C         143.0672  142.4993  166.5524 C.ar    1  UNL1        0.0326
     10 C         141.9189  141.8494  167.2658 C.ar    1  UNL1        0.0214
     11 C         141.7056  142.1014  168.7290 C.ar    1  UNL1        0.0075
     12 C         140.5573  141.4516  169.4424 C.ar    1  UNL1        0.0702
     13 C         139.6222  140.5497  168.6926 C.ar    1  UNL1        0.2620
     14 O         138.4738  139.8998  169.4060 O.2     1  UNL1       -0.2669
     15 N         139.8354  140.2977  167.2293 N.ar    1  UNL1       -0.2909
     16 C         140.9838  140.9475  166.5159 C.ar    1  UNL1        0.0980
     17 N         142.5587  141.0935  162.8762 N.pl3   1  UNL1       -0.3033
     18 C         142.8591  139.7664  162.2446 C.3     1  UNL1        0.0911
     19 C         142.9951  139.9770  160.7657 C.3     1  UNL1        0.0251
     20 C         143.2879  139.0302  159.6398 C.3     1  UNL1        0.0316
     21 C         143.3645  139.5406  158.2313 C.3     1  UNL1        0.1221
     22 C         143.1482  140.9977  157.9488 C.3     1  UNL1        0.0453
     23 C         142.8553  141.9446  159.0748 C.3     1  UNL1        0.0549
     24 N         142.6390  143.4017  158.7923 N.3     1  UNL1       -0.3221
     25 C         142.7788  141.4342  160.4832 C.3     1  UNL1        0.0358
     26 C         142.5091  142.1242  161.7876 C.3     1  UNL1        0.0923
     27 H         142.4533  143.8936  159.6663 H       1  UNL1        0.1188
     28 H         141.8428  143.5118  158.1644 H       1  UNL1        0.1188
     29 O         143.6573  138.5937  157.1054 O.3     1  UNL1       -0.3024
     30 C         142.9153  137.2939  157.0063 C.3     1  UNL1        0.4497
     31 F         143.6112  136.0707  156.4870 F       1  UNL1       -0.1663
     32 F         141.4774  137.2173  157.4264 F       1  UNL1       -0.1663
     33 C         140.3440  141.7036  170.9057 C.2     1  UNL1        0.0775
     34 O         139.6468  142.9523  171.3578 O.co2   1  UNL1       -0.5444
     35 O         140.8280  140.7068  171.9167 O.co2   1  UNL1       -0.5444
@<TRIPOS>UNITY_ATOM_ATTR
34 1
charge -1
@<TRIPOS>BOND
     1     2     1    1
     2     2     3    1
     3     3     4    1
     4     4     5    1
     5     5     6   ar
     6     6    17    1
     7    17    18    1
     8    19    18    1
     9    19    20    1
    10    20    21    1
    11    21    29    1
    12    29    30    1
    13    30    31    1
    14    30    32    1
    15    21    22    1
    16    22    23    1
    17    23    24    1
    18    23    25    1
    19    25    26    1
    20     6     7   ar
    21     7     8    1
    22     7     9   ar
    23     9    10   ar
    24    10    11   ar
    25    11    12   ar
    26    12    33    1
    27    33    34   ar
    28    33    35   ar
    29    12    13   ar
    30    13    14    2
    31    13    15   ar
    32    15    16   ar
    33    15     2    1
    34    16     5   ar
    35    26    17    1
    36    16    10   ar
    37    25    19    1
    38    24    27    1
    39    24    28    1
@<TRIPOS>MOLECULE
*****
 35 39 0 0 0
SMALL
GASTEIGER

@<TRIPOS>ATOM
      1 C         138.3271  139.4976  166.8655 C.3     1  UNL1        0.0285
      2 C         139.3093  140.3950  166.1729 C.3     1  UNL1        0.1321
      3 C         139.0548  140.8389  164.7629 C.3     1  UNL1        0.2279
      4 O         140.0370  141.7363  164.0702 O.3     1  UNL1       -0.4707
      5 C         141.2738  142.1900  164.7875 C.ar    1  UNL1        0.1697
      6 C         142.2560  143.0874  164.0949 C.ar    1  UNL1        0.1115
      7 C         143.4927  143.5410  164.8122 C.ar    1  UNL1        0.1564
      8 F         144.4750  144.4385  164.1195 F       1  UNL1       -0.2028
      9 C         143.7473  143.0972  166.2223 C.ar    1  UNL1        0.0326
     10 C         142.7651  142.1997  166.9150 C.ar    1  UNL1        0.0214
     11 C         143.0196  141.7559  168.3250 C.ar    1  UNL1        0.0075
     12 C         142.0374  140.8584  169.0176 C.ar    1  UNL1        0.0702
     13 C         140.8006  140.4048  168.3003 C.ar    1  UNL1        0.2620
     14 O         139.8184  139.5074  168.9930 O.2     1  UNL1       -0.2669
     15 N         140.5461  140.8487  166.8902 N.ar    1  UNL1       -0.2909
     16 C         141.5283  141.7461  166.1975 C.ar    1  UNL1        0.0980
     17 N         142.0015  143.5313  162.6848 N.pl3   1  UNL1       -0.3033
     18 C         141.0154  144.5763  162.2538 C.3     1  UNL1        0.0911
     19 C         141.0928  144.6990  160.7608 C.3     1  UNL1        0.0251
     20 C         140.3554  145.5680  159.7856 C.3     1  UNL1        0.0316
     21 C         140.6519  145.4677  158.3185 C.3     1  UNL1        0.1221
     22 C         141.6858  144.4985  157.8268 C.3     1  UNL1        0.0453
     23 C         142.4231  143.6295  158.8021 C.3     1  UNL1        0.0549
     24 N         143.4570  142.6603  158.3104 N.3     1  UNL1       -0.3221
     25 C         142.1267  143.7297  160.2691 C.3     1  UNL1        0.0358
     26 C         142.6883  143.0080  161.4582 C.3     1  UNL1        0.0923
     27 H         143.8545  142.1561  159.1029 H       1  UNL1        0.1188
     28 H         144.1963  143.1688  157.8255 H       1  UNL1        0.1188
     29 O         139.9146  146.3367  157.3433 O.3     1  UNL1       -0.3024
     30 C         139.7163  145.8764  155.9295 C.3     1  UNL1        0.4497
     31 F         140.8264  146.0204  154.9312 F       1  UNL1       -0.1663
     32 F         138.4077  145.2721  155.5142 F       1  UNL1       -0.1663
     33 C         142.2920  140.4146  170.4277 C.2     1  UNL1        0.0775
     34 O         141.4885  140.9953  171.5534 O.co2   1  UNL1       -0.5444
     35 O         143.3501  139.3901  170.7120 O.co2   1  UNL1       -0.5444
@<TRIPOS>UNITY_ATOM_ATTR
34 1
charge -1
@<TRIPOS>BOND
     1     2     1    1
     2     2     3    1
     3     3     4    1
     4     4     5    1
     5     5     6   ar
     6     6    17    1
     7    17    18    1
     8    19    18    1
     9    19    20    1
    10    20    21    1
    11    21    29    1
    12    29    30    1
    13    30    31    1
    14    30    32    1
    15    21    22    1
    16    22    23    1
    17    23    24    1
    18    23    25    1
    19    25    26    1
    20     6     7   ar
    21     7     8    1
    22     7     9   ar
    23     9    10   ar
    24    10    11   ar
    25    11    12   ar
    26    12    33    1
    27    33    34   ar
    28    33    35   ar
    29    12    13   ar
    30    13    14    2
    31    13    15   ar
    32    15    16   ar
    33    15     2    1
    34    16     5   ar
    35    26    17    1
    36    16    10   ar
    37    25    19    1
    38    24    27    1
    39    24    28    1
@<TRIPOS>MOLECULE
*****
 35 39 0 0 0
SMALL
GASTEIGER

@<TRIPOS>ATOM
      1 C         143.6487  138.4142  165.9433 C.3     1  UNL1        0.0285
      2 C         142.8328  139.5871  165.4866 C.3     1  UNL1        0.1321
      3 C         142.7673  139.9331  164.0286 C.3     1  UNL1        0.2279
      4 O         141.9514  141.1060  163.5719 O.3     1  UNL1       -0.4707
      5 C         141.2009  141.9330  164.5733 C.ar    1  UNL1        0.1697
      6 C         140.3850  143.1059  164.1167 C.ar    1  UNL1        0.1115
      7 C         139.6346  143.9329  165.1181 C.ar    1  UNL1        0.1564
      8 F         138.8187  145.1058  164.6615 F       1  UNL1       -0.2028
      9 C         139.7001  143.5870  166.5763 C.ar    1  UNL1        0.0326
     10 C         140.5160  142.4141  167.0329 C.ar    1  UNL1        0.0214
     11 C         140.5815  142.0681  168.4910 C.ar    1  UNL1        0.0075
     12 C         141.3974  140.8952  168.9476 C.ar    1  UNL1        0.0702
     13 C         142.1478  140.0682  167.9462 C.ar    1  UNL1        0.2620
     14 O         142.9637  138.8953  168.4028 O.2     1  UNL1       -0.2669
     15 N         142.0823  140.4141  166.4880 N.ar    1  UNL1       -0.2909
     16 C         141.2664  141.5870  166.0314 C.ar    1  UNL1        0.0980
     17 N         140.3196  143.4518  162.6586 N.pl3   1  UNL1       -0.3033
     18 C         140.9894  144.6207  161.9988 C.3     1  UNL1        0.0911
     19 C         140.6566  144.5810  160.5367 C.3     1  UNL1        0.0251
     20 C         141.0376  145.4772  159.3959 C.3     1  UNL1        0.0316
     21 C         140.5431  145.1801  158.0112 C.3     1  UNL1        0.1221
     22 C         139.6677  143.9868  157.7674 C.3     1  UNL1        0.0453
     23 C         139.2866  143.0905  158.9082 C.3     1  UNL1        0.0549
     24 N         138.4112  141.8972  158.6644 N.3     1  UNL1       -0.3221
     25 C         139.7811  143.3876  160.2929 C.3     1  UNL1        0.0358
     26 C         139.5728  142.6898  161.6043 C.3     1  UNL1        0.0923
     27 H         138.2547  141.4049  159.5440 H       1  UNL1        0.1188
     28 H         138.8670  141.2710  158.0007 H       1  UNL1        0.1188
     29 O         140.9242  146.0764  156.8704 O.3     1  UNL1       -0.3024
     30 C         139.8646  146.8291  156.1217 C.3     1  UNL1        0.4497
     31 F         138.8935  147.6970  156.8659 F       1  UNL1       -0.1663
     32 F         139.7760  146.7139  154.6288 F       1  UNL1       -0.1663
     33 C         141.4628  140.5493  170.4058 C.2     1  UNL1        0.0775
     34 O         142.7929  140.4210  171.0872 O.co2   1  UNL1       -0.5444
     35 O         140.1981  140.3316  171.1824 O.co2   1  UNL1       -0.5444
@<TRIPOS>UNITY_ATOM_ATTR
34 1
charge -1
@<TRIPOS>BOND
     1     2     1    1
     2     2     3    1
     3     3     4    1
     4     4     5    1
     5     5     6   ar
     6     6    17    1
     7    17    18    1
     8    19    18    1
     9    19    20    1
    10    20    21    1
    11    21    29    1
    12    29    30    1
    13    30    31    1
    14    30    32    1
    15    21    22    1
    16    22    23    1
    17    23    24    1
    18    23    25    1
    19    25    26    1
    20     6     7   ar
    21     7     8    1
    22     7     9   ar
    23     9    10   ar
    24    10    11   ar
    25    11    12   ar
    26    12    33    1
    27    33    34   ar
    28    33    35   ar
    29    12    13   ar
    30    13    14    2
    31    13    15   ar
    32    15    16   ar
    33    15     2    1
    34    16     5   ar
    35    26    17    1
    36    16    10   ar
    37    25    19    1
    38    24    27    1
    39    24    28    1
@<TRIPOS>MOLECULE
*****
 35 39 0 0 0
SMALL
GASTEIGER

@<TRIPOS>ATOM
      1 C         143.3612  138.6646  166.6182 C.3     1  UNL1        0.0285
      2 C         142.5576  139.7427  165.9535 C.3     1  UNL1        0.1321
      3 C         142.4532  139.7862  164.4578 C.3     1  UNL1        0.2279
      4 O         141.6496  140.8643  163.7930 O.3     1  UNL1       -0.4707
      5 C         140.9503  141.8989  164.6239 C.ar    1  UNL1        0.1697
      6 C         140.1467  142.9770  163.9592 C.ar    1  UNL1        0.1115
      7 C         139.4474  144.0116  164.7901 C.ar    1  UNL1        0.1564
      8 F         138.6438  145.0897  164.1253 F       1  UNL1       -0.2028
      9 C         139.5517  143.9682  166.2859 C.ar    1  UNL1        0.0326
     10 C         140.3553  142.8901  166.9507 C.ar    1  UNL1        0.0214
     11 C         140.4597  142.8466  168.4464 C.ar    1  UNL1        0.0075
     12 C         141.2633  141.7685  169.1111 C.ar    1  UNL1        0.0702
     13 C         141.9626  140.7339  168.2802 C.ar    1  UNL1        0.2620
     14 O         142.7662  139.6558  168.9450 O.2     1  UNL1       -0.2669
     15 N         141.8583  140.7773  166.7844 N.ar    1  UNL1       -0.2909
     16 C         141.0546  141.8554  166.1196 C.ar    1  UNL1        0.0980
     17 N         140.0423  143.0204  162.4635 N.pl3   1  UNL1       -0.3033
     18 C         139.0305  142.2927  161.6287 C.3     1  UNL1        0.0911
     19 C         139.2943  142.6218  160.1892 C.3     1  UNL1        0.0251
     20 C         138.6165  142.1939  158.9213 C.3     1  UNL1        0.0316
     21 C         139.1136  142.6971  157.5984 C.3     1  UNL1        0.1221
     22 C         140.2884  143.6281  157.5435 C.3     1  UNL1        0.0453
     23 C         140.9661  144.0560  158.8114 C.3     1  UNL1        0.0549
     24 N         142.1409  144.9870  158.7565 N.3     1  UNL1       -0.3221
     25 C         140.4691  143.5528  160.1342 C.3     1  UNL1        0.0358
     26 C         140.9314  143.7992  161.5399 C.3     1  UNL1        0.0923
     27 H         142.4741  145.1702  159.7030 H       1  UNL1        0.1188
     28 H         141.8592  145.8645  158.3195 H       1  UNL1        0.1188
     29 O         138.4358  142.2692  156.3306 O.3     1  UNL1       -0.3024
     30 C         136.9799  142.5638  156.1221 C.3     1  UNL1        0.4497
     31 F         136.5455  143.9357  155.6986 F       1  UNL1       -0.1663
     32 F         135.9585  141.4867  156.3371 F       1  UNL1       -0.1663
     33 C         141.3676  141.7251  170.6069 C.2     1  UNL1        0.0775
     34 O         142.2811  142.6753  171.3229 O.co2   1  UNL1       -0.5444
     35 O         140.5585  140.7315  171.3866 O.co2   1  UNL1       -0.5444
@<TRIPOS>UNITY_ATOM_ATTR
34 1
charge -1
@<TRIPOS>BOND
     1     2     1    1
     2     2     3    1
     3     3     4    1
     4     4     5    1
     5     5     6   ar
     6     6    17    1
     7    17    18    1
     8    19    18    1
     9    19    20    1
    10    20    21    1
    11    21    29    1
    12    29    30    1
    13    30    31    1
    14    30    32    1
    15    21    22    1
    16    22    23    1
    17    23    24    1
    18    23    25    1
    19    25    26    1
    20     6     7   ar
    21     7     8    1
    22     7     9   ar
    23     9    10   ar
    24    10    11   ar
    25    11    12   ar
    26    12    33    1
    27    33    34   ar
    28    33    35   ar
    29    12    13   ar
    30    13    14    2
    31    13    15   ar
    32    15    16   ar
    33    15     2    1
    34    16     5   ar
    35    26    17    1
    36    16    10   ar
    37    25    19    1
    38    24    27    1
    39    24    28    1
@<TRIPOS>MOLECULE
*****
 35 39 0 0 0
SMALL
GASTEIGER

@<TRIPOS>ATOM
      1 C         137.8414  139.8553  159.8743 C.3     1  UNL1        0.0285
      2 C         139.0372  139.7777  160.7764 C.3     1  UNL1        0.1321
      3 C         138.9402  140.2595  162.1936 C.3     1  UNL1        0.2279
      4 O         140.1360  140.1819  163.0957 O.3     1  UNL1       -0.4707
      5 C         141.4290  139.6225  162.5807 C.ar    1  UNL1        0.1697
      6 C         142.6248  139.5449  163.4829 C.ar    1  UNL1        0.1115
      7 C         143.9178  138.9854  162.9679 C.ar    1  UNL1        0.1564
      8 F         145.1137  138.9078  163.8700 F       1  UNL1       -0.2028
      9 C         144.0149  138.5035  161.5507 C.ar    1  UNL1        0.0326
     10 C         142.8190  138.5811  160.6485 C.ar    1  UNL1        0.0214
     11 C         142.9161  138.0993  159.2314 C.ar    1  UNL1        0.0075
     12 C         141.7202  138.1769  158.3292 C.ar    1  UNL1        0.0702
     13 C         140.4273  138.7364  158.8442 C.ar    1  UNL1        0.2620
     14 O         139.2314  138.8140  157.9421 O.2     1  UNL1       -0.2669
     15 N         140.3302  139.2182  160.2614 N.ar    1  UNL1       -0.2909
     16 C         141.5261  139.1406  161.1636 C.ar    1  UNL1        0.0980
     17 N         142.5278  140.0267  164.9000 N.pl3   1  UNL1       -0.3033
     18 C         142.1500  141.4112  165.3367 C.3     1  UNL1        0.0911
     19 C         142.1802  141.4489  166.8359 C.3     1  UNL1        0.0251
     20 C         141.8979  142.5468  167.8182 C.3     1  UNL1        0.0316
     21 C         142.0121  142.2835  169.2906 C.3     1  UNL1        0.1221
     22 C         142.4084  140.9223  169.7805 C.3     1  UNL1        0.0453
     23 C         142.6907  139.8244  168.7982 C.3     1  UNL1        0.0549
     24 N         143.0870  138.4632  169.2881 N.3     1  UNL1       -0.3221
     25 C         142.5766  140.0877  167.3259 C.3     1  UNL1        0.0358
     26 C         142.7914  139.2087  166.1294 C.3     1  UNL1        0.0923
     27 H         143.2391  137.8458  168.4906 H       1  UNL1        0.1188
     28 H         142.3443  138.0836  169.8753 H       1  UNL1        0.1188
     29 O         141.7298  143.3814  170.2729 O.3     1  UNL1       -0.3024
     30 C         140.3309  143.8958  170.4412 C.3     1  UNL1        0.4497
     31 F         140.0519  145.3644  170.3177 F       1  UNL1       -0.1663
     32 F         139.2110  142.9415  170.7332 F       1  UNL1       -0.1663
     33 C         141.8174  137.6950  156.9120 C.2     1  UNL1        0.0775
     34 O         142.6812  138.4273  155.9284 O.co2   1  UNL1       -0.5444
     35 O         141.0507  136.4808  156.4785 O.co2   1  UNL1       -0.5444
@<TRIPOS>UNITY_ATOM_ATTR
34 1
charge -1
@<TRIPOS>BOND
     1     2     1    1
     2     2     3    1
     3     3     4    1
     4     4     5    1
     5     5     6   ar
     6     6    17    1
     7    17    18    1
     8    19    18    1
     9    19    20    1
    10    20    21    1
    11    21    29    1
    12    29    30    1
    13    30    31    1
    14    30    32    1
    15    21    22    1
    16    22    23    1
    17    23    24    1
    18    23    25    1
    19    25    26    1
    20     6     7   ar
    21     7     8    1
    22     7     9   ar
    23     9    10   ar
    24    10    11   ar
    25    11    12   ar
    26    12    33    1
    27    33    34   ar
    28    33    35   ar
    29    12    13   ar
    30    13    14    2
    31    13    15   ar
    32    15    16   ar
    33    15     2    1
    34    16     5   ar
    35    26    17    1
    36    16    10   ar
    37    25    19    1
    38    24    27    1
    39    24    28    1
@<TRIPOS>MOLECULE
*****
 35 39 0 0 0
SMALL
GASTEIGER

@<TRIPOS>ATOM
      1 C         140.3991  144.6354  160.7026 C.3     1  UNL1        0.0285
      2 C         140.1902  143.4233  161.5613 C.3     1  UNL1        0.1321
      3 C         140.7086  143.4029  162.9686 C.3     1  UNL1        0.2279
      4 O         140.4997  142.1909  163.8274 O.3     1  UNL1       -0.4707
      5 C         139.7724  140.9993  163.2787 C.ar    1  UNL1        0.1697
      6 C         139.5635  139.7873  164.1374 C.ar    1  UNL1        0.1115
      7 C         138.8363  138.5957  163.5887 C.ar    1  UNL1        0.1564
      8 F         138.6274  137.3837  164.4474 F       1  UNL1       -0.2028
      9 C         138.3178  138.6161  162.1812 C.ar    1  UNL1        0.0326
     10 C         138.5267  139.8281  161.3225 C.ar    1  UNL1        0.0214
     11 C         138.0083  139.8485  159.9151 C.ar    1  UNL1        0.0075
     12 C         138.2172  141.0605  159.0564 C.ar    1  UNL1        0.0702
     13 C         138.9445  142.2521  159.6051 C.ar    1  UNL1        0.2620
     14 O         139.1534  143.4642  158.7464 O.2     1  UNL1       -0.2669
     15 N         139.4629  142.2318  161.0126 N.ar    1  UNL1       -0.2909
     16 C         139.2540  141.0197  161.8713 C.ar    1  UNL1        0.0980
     17 N         140.0819  139.7669  165.5448 N.pl3   1  UNL1       -0.3033
     18 C         141.4986  139.4989  165.9588 C.3     1  UNL1        0.0911
     19 C         141.5670  139.5772  167.4552 C.3     1  UNL1        0.0251
     20 C         142.7031  139.4013  168.4186 C.3     1  UNL1        0.0316
     21 C         142.4649  139.5419  169.8929 C.3     1  UNL1        0.1221
     22 C         141.0905  139.8582  170.4038 C.3     1  UNL1        0.0453
     23 C         139.9543  140.0341  169.4403 C.3     1  UNL1        0.0549
     24 N         138.5800  140.3505  169.9511 N.3     1  UNL1       -0.3221
     25 C         140.1925  139.8936  167.9661 C.3     1  UNL1        0.0358
     26 C         139.2747  140.0108  166.7853 C.3     1  UNL1        0.0923
     27 H         137.9361  140.4353  169.1646 H       1  UNL1        0.1188
     28 H         138.6033  141.2297  170.4678 H       1  UNL1        0.1188
     29 O         143.6010  139.3660  170.8564 O.3     1  UNL1       -0.3024
     30 C         144.1434  137.9954  171.1343 C.3     1  UNL1        0.4497
     31 F         145.2303  137.8109  172.1514 F       1  UNL1       -0.1663
     32 F         143.5987  136.8093  170.3951 F       1  UNL1       -0.1663
     33 C         137.6988  141.0809  157.6489 C.2     1  UNL1        0.0775
     34 O         137.9290  139.9042  156.7478 O.co2   1  UNL1       -0.5444
     35 O         136.9501  142.2781  157.1428 O.co2   1  UNL1       -0.5444
@<TRIPOS>UNITY_ATOM_ATTR
34 1
charge -1
@<TRIPOS>BOND
     1     2     1    1
     2     2     3    1
     3     3     4    1
     4     4     5    1
     5     5     6   ar
     6     6    17    1
     7    17    18    1
     8    19    18    1
     9    19    20    1
    10    20    21    1
    11    21    29    1
    12    29    30    1
    13    30    31    1
    14    30    32    1
    15    21    22    1
    16    22    23    1
    17    23    24    1
    18    23    25    1
    19    25    26    1
    20     6     7   ar
    21     7     8    1
    22     7     9   ar
    23     9    10   ar
    24    10    11   ar
    25    11    12   ar
    26    12    33    1
    27    33    34   ar
    28    33    35   ar
    29    12    13   ar
    30    13    14    2
    31    13    15   ar
    32    15    16   ar
    33    15     2    1
    34    16     5   ar
    35    26    17    1
    36    16    10   ar
    37    25    19    1
    38    24    27    1
    39    24    28    1
