@<TRIPOS>MOLECULE
*****
 36 40 0 0 0
SMALL
GASTEIGER

@<TRIPOS>ATOM
      1 N         142.8138  138.3320  165.7417 N.pl3   1  UNL1       -0.3058
      2 H         143.6158  137.7611  165.7338 H       1  UNL1        0.1495
      3 C         142.5699  139.2668  166.8891 C.ar    1  UNL1        0.1981
      4 N         142.9512  139.0253  168.3196 N.ar    1  UNL1       -0.2138
      5 C         142.5188  140.2166  169.1221 C.ar    1  UNL1        0.0999
      6 C         142.6319  140.5373  170.5830 C.ar    1  UNL1        0.0207
      7 C         142.0964  141.8358  171.1094 C.ar    1  UNL1        0.0016
      8 C         141.4478  142.8135  170.1749 C.ar    1  UNL1        0.0016
      9 C         141.3347  142.4928  168.7140 C.ar    1  UNL1        0.0188
     10 C         141.8702  141.1943  168.1876 C.ar    1  UNL1        0.0801
     11 N         141.9018  140.6073  166.8075 N.ar    1  UNL1       -0.2955
     12 C         141.3603  141.2484  165.5642 C.3     1  UNL1        0.1376
     13 C         142.1192  142.3597  164.9018 C.ar    1  UNL1        0.0281
     14 C         143.5440  142.1491  164.4824 C.ar    1  UNL1        0.0021
     15 C         144.3030  143.2604  163.8200 C.ar    1  UNL1        0.0295
     16 C         143.6372  144.5824  163.5768 C.ar    1  UNL1        0.1424
     17 F         144.3963  145.6937  162.9143 F       1  UNL1       -0.2041
     18 C         142.2125  144.7930  163.9961 C.ar    1  UNL1        0.0590
     19 C         141.4535  143.6817  164.6585 C.ar    1  UNL1        0.1402
     20 F         140.0288  143.8924  165.0778 F       1  UNL1       -0.2044
     21 N         139.8793  138.1365  162.3357 N.3     1  UNL1       -0.2723
     22 C         141.2963  138.5577  162.0816 C.3     1  UNL1        0.0738
     23 C         142.2745  138.6229  163.2169 C.3     1  UNL1        0.0369
     24 C         141.8356  138.2668  164.6064 C.3     1  UNL1        0.0745
     25 C         140.4186  137.8455  164.8605 C.3     1  UNL1        0.0369
     26 C         139.4404  137.7804  163.7252 C.3     1  UNL1        0.0738
     27 C         138.9011  138.0713  161.2004 C.3     1  UNL1        0.0768
     28 C         137.6897  138.9559  161.2024 C.3     1  UNL1        0.0437
     29 C         138.0843  143.3089  162.2726 C.ar    1  UNL1        0.1387
     30 C         137.5342  142.3373  163.2741 C.ar    1  UNL1        0.0366
     31 C         137.4026  140.8863  162.9174 C.ar    1  UNL1       -0.0011
     32 C         137.8213  140.4069  161.5591 C.ar    1  UNL1       -0.0206
     33 C         138.3714  141.3786  160.5575 C.ar    1  UNL1       -0.0011
     34 C         138.5030  142.8296  160.9143 C.ar    1  UNL1        0.0366
     35 C         139.3150  145.5838  162.0265 C.3     1  UNL1        0.2525
     36 O         138.2159  144.7599  162.6293 O.3     1  UNL1       -0.4714
@<TRIPOS>BOND
     1    35    36    1
     2    36    29    1
     3    29    30   ar
     4    30    31   ar
     5    31    32   ar
     6    32    28    1
     7    28    27    1
     8    27    21    1
     9    21    22    1
    10    22    23    1
    11    23    24    1
    12    24     1    1
    13     1     3    1
    14     3     4   ar
    15     4     5   ar
    16     5     6   ar
    17     6     7   ar
    18     7     8   ar
    19     8     9   ar
    20     9    10   ar
    21    10    11   ar
    22    11    12    1
    23    12    13    1
    24    13    14   ar
    25    14    15   ar
    26    15    16   ar
    27    16    17    1
    28    16    18   ar
    29    18    19   ar
    30    19    20    1
    31    24    25    1
    32    25    26    1
    33    32    33   ar
    34    33    34   ar
    35    34    29   ar
    36    26    21    1
    37    11     3   ar
    38    19    13   ar
    39    10     5   ar
    40     1     2    1
@<TRIPOS>MOLECULE
*****
 36 40 0 0 0
SMALL
GASTEIGER

@<TRIPOS>ATOM
      1 N         142.9060  138.3179  165.7887 N.pl3   1  UNL1       -0.3058
      2 H         143.7393  137.7943  165.7617 H       1  UNL1        0.1495
      3 C         142.6121  139.1996  166.9660 C.ar    1  UNL1        0.1981
      4 N         142.9957  138.9260  168.3901 N.ar    1  UNL1       -0.2138
      5 C         142.5036  140.0670  169.2302 C.ar    1  UNL1        0.0999
      6 C         142.5930  140.3411  170.7022 C.ar    1  UNL1        0.0207
      7 C         141.9945  141.5941  171.2694 C.ar    1  UNL1        0.0016
      8 C         141.3067  142.5730  170.3646 C.ar    1  UNL1        0.0016
      9 C         141.2174  142.2989  168.8926 C.ar    1  UNL1        0.0188
     10 C         141.8158  141.0459  168.3254 C.ar    1  UNL1        0.0801
     11 N         141.8828  140.5098  166.9261 N.ar    1  UNL1       -0.2955
     12 C         141.3195  141.1684  165.7017 C.3     1  UNL1        0.1376
     13 C         142.1798  142.0791  164.8769 C.ar    1  UNL1        0.0281
     14 C         143.3217  142.8135  165.5147 C.ar    1  UNL1        0.0021
     15 C         144.1820  143.7243  164.6899 C.ar    1  UNL1        0.0295
     16 C         143.9004  143.9006  163.2271 C.ar    1  UNL1        0.1424
     17 F         144.7607  144.8114  162.4023 F       1  UNL1       -0.2041
     18 C         142.7586  143.1662  162.5893 C.ar    1  UNL1        0.0590
     19 C         141.8983  142.2555  163.4141 C.ar    1  UNL1        0.1402
     20 F         140.7565  141.5211  162.7762 F       1  UNL1       -0.2044
     21 N         139.9791  138.0660  162.3799 N.3     1  UNL1       -0.2723
     22 C         139.5292  137.7640  163.7785 C.3     1  UNL1        0.0738
     23 C         140.5049  137.8480  164.9149 C.3     1  UNL1        0.0369
     24 C         141.9304  138.2339  164.6524 C.3     1  UNL1        0.0745
     25 C         142.3803  138.5360  163.2537 C.3     1  UNL1        0.0369
     26 C         141.4047  138.4520  162.1174 C.3     1  UNL1        0.0738
     27 C         139.0035  137.9821  161.2435 C.3     1  UNL1        0.0768
     28 C         137.7536  138.8110  161.2654 C.3     1  UNL1        0.0437
     29 C         137.9858  143.2081  162.1936 C.ar    1  UNL1        0.1387
     30 C         137.5209  142.2434  163.2439 C.ar    1  UNL1        0.0366
     31 C         137.4435  140.7777  162.9345 C.ar    1  UNL1       -0.0011
     32 C         137.8310  140.2767  161.5748 C.ar    1  UNL1       -0.0206
     33 C         138.2959  141.2414  160.5244 C.ar    1  UNL1       -0.0011
     34 C         138.3733  142.7071  160.8339 C.ar    1  UNL1        0.0366
     35 C         139.3866  145.3792  162.4664 C.3     1  UNL1        0.2525
     36 O         138.0633  144.6738  162.5029 O.3     1  UNL1       -0.4714
@<TRIPOS>BOND
     1    35    36    1
     2    36    29    1
     3    29    30   ar
     4    30    31   ar
     5    31    32   ar
     6    32    28    1
     7    28    27    1
     8    27    21    1
     9    21    22    1
    10    22    23    1
    11    23    24    1
    12    24     1    1
    13     1     3    1
    14     3     4   ar
    15     4     5   ar
    16     5     6   ar
    17     6     7   ar
    18     7     8   ar
    19     8     9   ar
    20     9    10   ar
    21    10    11   ar
    22    11    12    1
    23    12    13    1
    24    13    14   ar
    25    14    15   ar
    26    15    16   ar
    27    16    17    1
    28    16    18   ar
    29    18    19   ar
    30    19    20    1
    31    24    25    1
    32    25    26    1
    33    32    33   ar
    34    33    34   ar
    35    34    29   ar
    36    26    21    1
    37    11     3   ar
    38    19    13   ar
    39    10     5   ar
    40     1     2    1
@<TRIPOS>MOLECULE
*****
 36 40 0 0 0
SMALL
GASTEIGER

@<TRIPOS>ATOM
      1 N         142.6565  139.0987  165.9426 N.pl3   1  UNL1       -0.3058
      2 H         143.5128  138.6560  166.1431 H       1  UNL1        0.1495
      3 C         142.0017  139.9677  166.9751 C.ar    1  UNL1        0.1981
      4 N         140.9049  139.5521  167.9101 N.ar    1  UNL1       -0.2138
      5 C         140.5539  140.7324  168.7667 C.ar    1  UNL1        0.0999
      6 C         139.5469  140.9125  169.8637 C.ar    1  UNL1        0.0207
      7 C         139.4197  142.2376  170.5550 C.ar    1  UNL1        0.0016
      8 C         140.2997  143.3826  170.1493 C.ar    1  UNL1        0.0016
      9 C         141.3068  143.2026  169.0524 C.ar    1  UNL1        0.0188
     10 C         141.4339  141.8775  168.3611 C.ar    1  UNL1        0.0801
     11 N         142.3286  141.4048  167.2538 N.ar    1  UNL1       -0.2955
     12 C         143.3679  142.2253  166.5490 C.3     1  UNL1        0.1376
     13 C         143.0661  142.8276  165.2089 C.ar    1  UNL1        0.0281
     14 C         141.6717  143.2759  164.8849 C.ar    1  UNL1        0.0021
     15 C         141.3698  143.8782  163.5448 C.ar    1  UNL1        0.0295
     16 C         142.4624  144.0324  162.5286 C.ar    1  UNL1        0.1424
     17 F         142.1605  144.6348  161.1884 F       1  UNL1       -0.2041
     18 C         143.8566  143.5842  162.8525 C.ar    1  UNL1        0.0590
     19 C         144.1585  142.9818  164.1927 C.ar    1  UNL1        0.1402
     20 F         145.5529  142.5337  164.5165 F       1  UNL1       -0.2044
     21 N         140.7075  138.5148  161.9289 N.3     1  UNL1       -0.2723
     22 C         141.7841  139.5455  162.0969 C.3     1  UNL1        0.0738
     23 C         142.4339  139.7402  163.4349 C.3     1  UNL1        0.0369
     24 C         142.0069  138.9040  164.6047 C.3     1  UNL1        0.0745
     25 C         140.9301  137.8733  164.4367 C.3     1  UNL1        0.0369
     26 C         140.2804  137.6787  163.0988 C.3     1  UNL1        0.0738
     27 C         140.0577  138.3201  160.5910 C.3     1  UNL1        0.0768
     28 C         138.8396  139.1156  160.2259 C.3     1  UNL1        0.0437
     29 C         137.8720  142.9009  162.4586 C.ar    1  UNL1        0.1387
     30 C         137.3950  141.5787  162.9821 C.ar    1  UNL1        0.0366
     31 C         137.7175  140.3169  162.2379 C.ar    1  UNL1       -0.0011
     32 C         138.5171  140.3774  160.9701 C.ar    1  UNL1       -0.0206
     33 C         138.9940  141.6996  160.4466 C.ar    1  UNL1       -0.0011
     34 C         138.6715  142.9615  161.1909 C.ar    1  UNL1        0.0366
     35 C         137.8256  144.2571  164.6742 C.3     1  UNL1        0.2525
     36 O         137.5495  144.1627  163.2028 O.3     1  UNL1       -0.4714
@<TRIPOS>BOND
     1    35    36    1
     2    36    29    1
     3    29    30   ar
     4    30    31   ar
     5    31    32   ar
     6    32    28    1
     7    28    27    1
     8    27    21    1
     9    21    22    1
    10    22    23    1
    11    23    24    1
    12    24     1    1
    13     1     3    1
    14     3     4   ar
    15     4     5   ar
    16     5     6   ar
    17     6     7   ar
    18     7     8   ar
    19     8     9   ar
    20     9    10   ar
    21    10    11   ar
    22    11    12    1
    23    12    13    1
    24    13    14   ar
    25    14    15   ar
    26    15    16   ar
    27    16    17    1
    28    16    18   ar
    29    18    19   ar
    30    19    20    1
    31    24    25    1
    32    25    26    1
    33    32    33   ar
    34    33    34   ar
    35    34    29   ar
    36    26    21    1
    37    11     3   ar
    38    19    13   ar
    39    10     5   ar
    40     1     2    1
@<TRIPOS>MOLECULE
*****
 36 40 0 0 0
SMALL
GASTEIGER

@<TRIPOS>ATOM
      1 N         143.1420  138.1635  165.6976 N.pl3   1  UNL1       -0.3058
      2 H         143.9207  137.5615  165.7171 H       1  UNL1        0.1495
      3 C         142.9250  139.1454  166.8107 C.ar    1  UNL1        0.1981
      4 N         143.0078  138.8469  168.2784 N.ar    1  UNL1       -0.2138
      5 C         142.7211  140.1151  169.0263 C.ar    1  UNL1        0.0999
      6 C         142.6632  140.4242  170.4929 C.ar    1  UNL1        0.0207
      7 C         142.3452  141.8156  170.9541 C.ar    1  UNL1        0.0016
      8 C         142.0851  142.8980  169.9487 C.ar    1  UNL1        0.0016
      9 C         142.1430  142.5889  168.4820 C.ar    1  UNL1        0.0188
     10 C         142.4610  141.1974  168.0208 C.ar    1  UNL1        0.0801
     11 N         142.5870  140.5981  166.6516 N.ar    1  UNL1       -0.2955
     12 C         142.4067  141.3241  165.3514 C.3     1  UNL1        0.1376
     13 C         141.1473  142.0964  165.0920 C.ar    1  UNL1        0.0281
     14 C         139.8181  141.4030  165.1436 C.ar    1  UNL1        0.0021
     15 C         138.5587  142.1753  164.8842 C.ar    1  UNL1        0.0295
     16 C         138.6284  143.6411  164.5731 C.ar    1  UNL1        0.1424
     17 F         137.3689  144.4134  164.3137 F       1  UNL1       -0.2041
     18 C         139.9575  144.3345  164.5215 C.ar    1  UNL1        0.0590
     19 C         141.2169  143.5622  164.7809 C.ar    1  UNL1        0.1402
     20 F         142.5460  144.2556  164.7293 F       1  UNL1       -0.2044
     21 N         140.2336  137.9698  162.2692 N.3     1  UNL1       -0.2723
     22 C         139.7521  137.7585  163.6740 C.3     1  UNL1        0.0738
     23 C         140.7216  137.8230  164.8169 C.3     1  UNL1        0.0369
     24 C         142.1725  138.0990  164.5549 C.3     1  UNL1        0.0745
     25 C         142.6540  138.3103  163.1500 C.3     1  UNL1        0.0369
     26 C         141.6846  138.2457  162.0072 C.3     1  UNL1        0.0738
     27 C         139.2642  137.9052  161.1264 C.3     1  UNL1        0.0768
     28 C         139.3551  138.9013  160.0086 C.3     1  UNL1        0.0437
     29 C         139.2926  143.3092  160.9122 C.ar    1  UNL1        0.1387
     30 C         140.5153  142.6847  160.3081 C.ar    1  UNL1        0.0366
     31 C         140.5362  141.2155  160.0069 C.ar    1  UNL1       -0.0011
     32 C         139.3342  140.3706  160.3098 C.ar    1  UNL1       -0.0206
     33 C         138.1115  140.9951  160.9139 C.ar    1  UNL1       -0.0011
     34 C         138.0907  142.4644  161.2151 C.ar    1  UNL1        0.0366
     35 C         140.3241  145.6776  160.6353 C.3     1  UNL1        0.2525
     36 O         139.2717  144.7785  161.2135 O.3     1  UNL1       -0.4714
@<TRIPOS>BOND
     1    35    36    1
     2    36    29    1
     3    29    30   ar
     4    30    31   ar
     5    31    32   ar
     6    32    28    1
     7    28    27    1
     8    27    21    1
     9    21    22    1
    10    22    23    1
    11    23    24    1
    12    24     1    1
    13     1     3    1
    14     3     4   ar
    15     4     5   ar
    16     5     6   ar
    17     6     7   ar
    18     7     8   ar
    19     8     9   ar
    20     9    10   ar
    21    10    11   ar
    22    11    12    1
    23    12    13    1
    24    13    14   ar
    25    14    15   ar
    26    15    16   ar
    27    16    17    1
    28    16    18   ar
    29    18    19   ar
    30    19    20    1
    31    24    25    1
    32    25    26    1
    33    32    33   ar
    34    33    34   ar
    35    34    29   ar
    36    26    21    1
    37    11     3   ar
    38    19    13   ar
    39    10     5   ar
    40     1     2    1
@<TRIPOS>MOLECULE
*****
 36 40 0 0 0
SMALL
GASTEIGER

@<TRIPOS>ATOM
      1 N         138.6985  138.7402  165.3839 N.pl3   1  UNL1       -0.3058
      2 H         137.7958  138.3476  165.3977 H       1  UNL1        0.1495
      3 C         139.1615  139.5964  166.5251 C.ar    1  UNL1        0.1981
      4 N         138.7361  139.4621  167.9573 N.ar    1  UNL1       -0.2138
      5 C         139.4429  140.5200  168.7519 C.ar    1  UNL1        0.0999
      6 C         139.4127  140.8674  170.2108 C.ar    1  UNL1        0.0207
      7 C         140.2448  142.0030  170.7286 C.ar    1  UNL1        0.0016
      8 C         141.1070  142.7911  169.7876 C.ar    1  UNL1        0.0016
      9 C         141.1371  142.4436  168.3288 C.ar    1  UNL1        0.0188
     10 C         140.3051  141.3081  167.8109 C.ar    1  UNL1        0.0801
     11 N         140.1312  140.7373  166.4347 N.ar    1  UNL1       -0.2955
     12 C         140.8081  141.2223  165.1871 C.3     1  UNL1        0.1376
     13 C         140.2752  142.4228  164.4629 C.ar    1  UNL1        0.0281
     14 C         139.5236  143.4804  165.2157 C.ar    1  UNL1        0.0021
     15 C         138.9907  144.6811  164.4916 C.ar    1  UNL1        0.0295
     16 C         139.2095  144.8242  163.0145 C.ar    1  UNL1        0.1424
     17 F         138.6766  146.0249  162.2903 F       1  UNL1       -0.2041
     18 C         139.9610  143.7667  162.2617 C.ar    1  UNL1        0.0590
     19 C         140.4939  142.5660  162.9858 C.ar    1  UNL1        0.1402
     20 F         141.2455  141.5086  162.2329 F       1  UNL1       -0.2044
     21 N         141.4356  137.9662  161.8969 N.3     1  UNL1       -0.2723
     22 C         141.8392  137.5378  163.2766 C.3     1  UNL1        0.0738
     23 C         140.9268  137.7958  164.4390 C.3     1  UNL1        0.0369
     24 C         139.6109  138.4822  164.2216 C.3     1  UNL1        0.0745
     25 C         139.2074  138.9105  162.8418 C.3     1  UNL1        0.0369
     26 C         140.1197  138.6525  161.6795 C.3     1  UNL1        0.0738
     27 C         142.3480  137.7081  160.7345 C.3     1  UNL1        0.0768
     28 C         143.7456  138.2527  160.7428 C.3     1  UNL1        0.0437
     29 C         144.5043  142.4825  162.0782 C.ar    1  UNL1        0.1387
     30 C         144.7189  141.3449  163.0321 C.ar    1  UNL1        0.0366
     31 C         144.4660  139.9350  162.5870 C.ar    1  UNL1       -0.0011
     32 C         143.9985  139.6626  161.1879 C.ar    1  UNL1       -0.0206
     33 C         143.7839  140.8002  160.2340 C.ar    1  UNL1       -0.0011
     34 C         144.0369  142.2101  160.6792 C.ar    1  UNL1        0.0366
     35 C         143.6088  144.7688  162.9271 C.3     1  UNL1        0.2525
     36 O         144.7572  143.8924  162.5233 O.3     1  UNL1       -0.4714
@<TRIPOS>BOND
     1    35    36    1
     2    36    29    1
     3    29    30   ar
     4    30    31   ar
     5    31    32   ar
     6    32    28    1
     7    28    27    1
     8    27    21    1
     9    21    22    1
    10    22    23    1
    11    23    24    1
    12    24     1    1
    13     1     3    1
    14     3     4   ar
    15     4     5   ar
    16     5     6   ar
    17     6     7   ar
    18     7     8   ar
    19     8     9   ar
    20     9    10   ar
    21    10    11   ar
    22    11    12    1
    23    12    13    1
    24    13    14   ar
    25    14    15   ar
    26    15    16   ar
    27    16    17    1
    28    16    18   ar
    29    18    19   ar
    30    19    20    1
    31    24    25    1
    32    25    26    1
    33    32    33   ar
    34    33    34   ar
    35    34    29   ar
    36    26    21    1
    37    11     3   ar
    38    19    13   ar
    39    10     5   ar
    40     1     2    1
@<TRIPOS>MOLECULE
*****
 36 40 0 0 0
SMALL
GASTEIGER

@<TRIPOS>ATOM
      1 N         139.0280  139.0637  165.5240 N.pl3   1  UNL1       -0.3058
      2 H         138.1074  138.7182  165.4748 H       1  UNL1        0.1495
      3 C         139.4448  139.9256  166.6788 C.ar    1  UNL1        0.1981
      4 N         139.7153  139.4555  168.0773 N.ar    1  UNL1       -0.2138
      5 C         140.1020  140.6482  168.9006 C.ar    1  UNL1        0.0999
      6 C         140.4787  140.7909  170.3455 C.ar    1  UNL1        0.0207
      7 C         140.8240  142.1409  170.9007 C.ar    1  UNL1        0.0016
      8 C         140.7925  143.3482  170.0110 C.ar    1  UNL1        0.0016
      9 C         140.4157  143.2055  168.5661 C.ar    1  UNL1        0.0188
     10 C         140.0705  141.8555  168.0110 C.ar    1  UNL1        0.0801
     11 N         139.6643  141.4088  166.6378 N.ar    1  UNL1       -0.2955
     12 C         139.5056  142.2907  165.4348 C.3     1  UNL1        0.1376
     13 C         140.6748  143.0784  164.9228 C.ar    1  UNL1        0.0281
     14 C         142.0594  142.5080  165.0098 C.ar    1  UNL1        0.0021
     15 C         143.2287  143.2957  164.4977 C.ar    1  UNL1        0.0295
     16 C         143.0134  144.6540  163.8986 C.ar    1  UNL1        0.1424
     17 F         144.1827  145.4417  163.3865 F       1  UNL1       -0.2041
     18 C         141.6288  145.2244  163.8115 C.ar    1  UNL1        0.0590
     19 C         140.4595  144.4366  164.3236 C.ar    1  UNL1        0.1402
     20 F         139.0750  145.0071  164.2365 F       1  UNL1       -0.2044
     21 N         141.9853  138.0572  162.2850 N.3     1  UNL1       -0.2723
     22 C         140.5134  137.9884  162.0045 C.3     1  UNL1        0.0738
     23 C         139.5276  138.3239  163.0841 C.3     1  UNL1        0.0369
     24 C         140.0137  138.7282  164.4444 C.3     1  UNL1        0.0745
     25 C         141.4857  138.7970  164.7249 C.3     1  UNL1        0.0369
     26 C         142.4714  138.4615  163.6453 C.3     1  UNL1        0.0738
     27 C         142.9711  137.7217  161.2053 C.3     1  UNL1        0.0768
     28 C         143.0548  138.5750  159.9746 C.3     1  UNL1        0.0437
     29 C         142.5616  143.0366  160.2923 C.ar    1  UNL1        0.1387
     30 C         141.6061  142.2338  159.4602 C.ar    1  UNL1        0.0366
     31 C         141.7704  140.7466  159.3543 C.ar    1  UNL1       -0.0011
     32 C         142.8904  140.0622  160.0805 C.ar    1  UNL1       -0.0206
     33 C         143.8459  140.8650  160.9126 C.ar    1  UNL1       -0.0011
     34 C         143.6815  142.3522  161.0185 C.ar    1  UNL1        0.0366
     35 C         141.0581  145.1503  160.1445 C.3     1  UNL1        0.2525
     36 O         142.3972  144.5237  160.3982 O.3     1  UNL1       -0.4714
@<TRIPOS>BOND
     1    35    36    1
     2    36    29    1
     3    29    30   ar
     4    30    31   ar
     5    31    32   ar
     6    32    28    1
     7    28    27    1
     8    27    21    1
     9    21    22    1
    10    22    23    1
    11    23    24    1
    12    24     1    1
    13     1     3    1
    14     3     4   ar
    15     4     5   ar
    16     5     6   ar
    17     6     7   ar
    18     7     8   ar
    19     8     9   ar
    20     9    10   ar
    21    10    11   ar
    22    11    12    1
    23    12    13    1
    24    13    14   ar
    25    14    15   ar
    26    15    16   ar
    27    16    17    1
    28    16    18   ar
    29    18    19   ar
    30    19    20    1
    31    24    25    1
    32    25    26    1
    33    32    33   ar
    34    33    34   ar
    35    34    29   ar
    36    26    21    1
    37    11     3   ar
    38    19    13   ar
    39    10     5   ar
    40     1     2    1
@<TRIPOS>MOLECULE
*****
 36 40 0 0 0
SMALL
GASTEIGER

@<TRIPOS>ATOM
      1 N         142.1442  138.3630  165.7554 N.pl3   1  UNL1       -0.3058
      2 H         141.9460  137.4367  166.0237 H       1  UNL1        0.1495
      3 C         141.9886  139.4799  166.7444 C.ar    1  UNL1        0.1981
      4 N         143.1039  140.2172  167.4245 N.ar    1  UNL1       -0.2138
      5 C         142.4950  141.2487  168.3274 C.ar    1  UNL1        0.0999
      6 C         143.1062  142.2658  169.2449 C.ar    1  UNL1        0.0207
      7 C         142.2256  143.1833  170.0403 C.ar    1  UNL1        0.0016
      8 C         140.7339  143.0836  169.9183 C.ar    1  UNL1        0.0016
      9 C         140.1228  142.0664  169.0008 C.ar    1  UNL1        0.0188
     10 C         141.0033  141.1490  168.2053 C.ar    1  UNL1        0.0801
     11 N         140.6904  140.0559  167.2270 N.ar    1  UNL1       -0.2955
     12 C         139.3197  139.6159  166.8053 C.3     1  UNL1        0.1376
     13 C         138.8374  139.8959  165.4129 C.ar    1  UNL1        0.0281
     14 C         138.5029  141.2996  165.0031 C.ar    1  UNL1        0.0021
     15 C         138.0205  141.5797  163.6107 C.ar    1  UNL1        0.0295
     16 C         137.8726  140.4561  162.6280 C.ar    1  UNL1        0.1424
     17 F         137.3902  140.7362  161.2356 F       1  UNL1       -0.2041
     18 C         138.2070  139.0525  163.0378 C.ar    1  UNL1        0.0590
     19 C         138.6894  138.7723  164.4302 C.ar    1  UNL1        0.1402
     20 F         139.0238  137.3687  164.8399 F       1  UNL1       -0.2044
     21 N         143.5166  139.2457  161.5617 N.3     1  UNL1       -0.2723
     22 C         144.2471  139.8381  162.7302 C.3     1  UNL1        0.0738
     23 C         143.7896  139.5438  164.1281 C.3     1  UNL1        0.0369
     24 C         142.6017  138.6572  164.3575 C.3     1  UNL1        0.0745
     25 C         141.8712  138.0648  163.1889 C.3     1  UNL1        0.0369
     26 C         142.3287  138.3591  161.7910 C.3     1  UNL1        0.0738
     27 C         143.9741  139.5399  160.1637 C.3     1  UNL1        0.0768
     28 C         143.7373  140.8955  159.5668 C.3     1  UNL1        0.0437
     29 C         140.6684  143.6453  161.3750 C.ar    1  UNL1        0.1387
     30 C         140.2298  142.4444  160.5906 C.ar    1  UNL1        0.0366
     31 C         141.2528  141.5278  159.9878 C.ar    1  UNL1       -0.0011
     32 C         142.7144  141.8121  160.1695 C.ar    1  UNL1       -0.0206
     33 C         143.1529  143.0130  160.9540 C.ar    1  UNL1       -0.0011
     34 C         142.1299  143.9296  161.5568 C.ar    1  UNL1        0.0366
     35 C         139.8420  146.0478  161.9184 C.3     1  UNL1        0.2525
     36 O         139.6454  144.5619  161.9778 O.3     1  UNL1       -0.4714
@<TRIPOS>BOND
     1    35    36    1
     2    36    29    1
     3    29    30   ar
     4    30    31   ar
     5    31    32   ar
     6    32    28    1
     7    28    27    1
     8    27    21    1
     9    21    22    1
    10    22    23    1
    11    23    24    1
    12    24     1    1
    13     1     3    1
    14     3     4   ar
    15     4     5   ar
    16     5     6   ar
    17     6     7   ar
    18     7     8   ar
    19     8     9   ar
    20     9    10   ar
    21    10    11   ar
    22    11    12    1
    23    12    13    1
    24    13    14   ar
    25    14    15   ar
    26    15    16   ar
    27    16    17    1
    28    16    18   ar
    29    18    19   ar
    30    19    20    1
    31    24    25    1
    32    25    26    1
    33    32    33   ar
    34    33    34   ar
    35    34    29   ar
    36    26    21    1
    37    11     3   ar
    38    19    13   ar
    39    10     5   ar
    40     1     2    1
@<TRIPOS>MOLECULE
*****
 36 40 0 0 0
SMALL
GASTEIGER

@<TRIPOS>ATOM
      1 N         137.3013  140.4150  163.3421 N.pl3   1  UNL1       -0.3058
      2 H         136.3317  140.5857  163.3458 H       1  UNL1        0.1495
      3 C         138.1065  140.6355  164.5883 C.ar    1  UNL1        0.1981
      4 N         138.2338  139.6789  165.7366 N.ar    1  UNL1       -0.2138
      5 C         139.1318  140.3035  166.7630 C.ar    1  UNL1        0.0999
      6 C         139.6153  139.8231  168.0991 C.ar    1  UNL1        0.0207
      7 C         140.5264  140.6855  168.9214 C.ar    1  UNL1        0.0016
      8 C         140.9541  142.0282  168.4074 C.ar    1  UNL1        0.0016
      9 C         140.4706  142.5086  167.0712 C.ar    1  UNL1        0.0188
     10 C         139.5594  141.6463  166.2490 C.ar    1  UNL1        0.0801
     11 N         138.9258  141.8514  164.9050 N.ar    1  UNL1       -0.2955
     12 C         139.0837  143.0603  164.0311 C.3     1  UNL1        0.1376
     13 C         140.4543  143.5636  163.6876 C.ar    1  UNL1        0.0281
     14 C         140.8525  144.9632  164.0520 C.ar    1  UNL1        0.0021
     15 C         142.2232  145.4665  163.7085 C.ar    1  UNL1        0.0295
     16 C         143.1956  144.5703  163.0005 C.ar    1  UNL1        0.1424
     17 F         144.5662  145.0737  162.6571 F       1  UNL1       -0.2041
     18 C         142.7974  143.1708  162.6361 C.ar    1  UNL1        0.0590
     19 C         141.4268  142.6675  162.9796 C.ar    1  UNL1        0.1402
     20 F         141.0286  141.2680  162.6151 F       1  UNL1       -0.2044
     21 N         139.3173  138.9730  159.5863 N.3     1  UNL1       -0.2723
     22 C         139.0478  138.0145  160.7082 C.3     1  UNL1        0.0738
     23 C         138.3758  138.4952  161.9602 C.3     1  UNL1        0.0369
     24 C         137.9733  139.9343  162.0902 C.3     1  UNL1        0.0745
     25 C         138.2428  140.8928  160.9682 C.3     1  UNL1        0.0369
     26 C         138.9148  140.4121  159.7163 C.3     1  UNL1        0.0738
     27 C         139.9893  138.4923  158.3343 C.3     1  UNL1        0.0768
     28 C         141.4691  138.2474  158.3240 C.3     1  UNL1        0.0437
     29 C         143.9873  139.5363  161.8237 C.ar    1  UNL1        0.1387
     30 C         143.6988  140.5008  160.7116 C.ar    1  UNL1        0.0366
     31 C         142.8595  140.0712  159.5451 C.ar    1  UNL1       -0.0011
     32 C         142.3085  138.6770  159.4906 C.ar    1  UNL1       -0.0206
     33 C         142.5969  137.7126  160.6026 C.ar    1  UNL1       -0.0011
     34 C         143.4363  138.1423  161.7692 C.ar    1  UNL1        0.0366
     35 C         144.1799  140.2623  164.3109 C.3     1  UNL1        0.2525
     36 O         144.8266  139.9660  162.9902 O.3     1  UNL1       -0.4714
@<TRIPOS>BOND
     1    35    36    1
     2    36    29    1
     3    29    30   ar
     4    30    31   ar
     5    31    32   ar
     6    32    28    1
     7    28    27    1
     8    27    21    1
     9    21    22    1
    10    22    23    1
    11    23    24    1
    12    24     1    1
    13     1     3    1
    14     3     4   ar
    15     4     5   ar
    16     5     6   ar
    17     6     7   ar
    18     7     8   ar
    19     8     9   ar
    20     9    10   ar
    21    10    11   ar
    22    11    12    1
    23    12    13    1
    24    13    14   ar
    25    14    15   ar
    26    15    16   ar
    27    16    17    1
    28    16    18   ar
    29    18    19   ar
    30    19    20    1
    31    24    25    1
    32    25    26    1
    33    32    33   ar
    34    33    34   ar
    35    34    29   ar
    36    26    21    1
    37    11     3   ar
    38    19    13   ar
    39    10     5   ar
    40     1     2    1
@<TRIPOS>MOLECULE
*****
 36 40 0 0 0
SMALL
GASTEIGER

@<TRIPOS>ATOM
      1 N         138.7001  138.5593  162.2150 N.pl3   1  UNL1       -0.3058
      2 H         138.3358  137.7196  162.5777 H       1  UNL1        0.1495
      3 C         139.5314  138.5388  160.9666 C.ar    1  UNL1        0.1981
      4 N         139.0855  138.9771  159.6032 N.ar    1  UNL1       -0.2138
      5 C         140.2331  138.7856  158.6563 C.ar    1  UNL1        0.0999
      6 C         140.3754  139.0462  157.1860 C.ar    1  UNL1        0.0207
      7 C         141.6728  138.7501  156.4940 C.ar    1  UNL1        0.0016
      8 C         142.8279  138.1934  157.2723 C.ar    1  UNL1        0.0016
      9 C         142.6856  137.9328  158.7426 C.ar    1  UNL1        0.0188
     10 C         141.3882  138.2289  159.4346 C.ar    1  UNL1        0.0801
     11 N         140.9545  138.0763  160.8624 N.ar    1  UNL1       -0.2955
     12 C         141.7963  137.5532  161.9884 C.3     1  UNL1        0.1376
     13 C         142.1326  138.4418  163.1490 C.ar    1  UNL1        0.0281
     14 C         142.8217  139.7534  162.9145 C.ar    1  UNL1        0.0021
     15 C         143.1581  140.6421  164.0751 C.ar    1  UNL1        0.0295
     16 C         142.8053  140.2192  165.4704 C.ar    1  UNL1        0.1424
     17 F         143.1416  141.1079  166.6310 F       1  UNL1       -0.2041
     18 C         142.1162  138.9077  165.7050 C.ar    1  UNL1        0.0590
     19 C         141.7798  138.0190  164.5443 C.ar    1  UNL1        0.1402
     20 F         141.0907  136.7075  164.7790 F       1  UNL1       -0.2044
     21 N         137.8715  142.4586  164.3028 N.3     1  UNL1       -0.2723
     22 C         137.5218  142.2948  162.8534 C.3     1  UNL1        0.0738
     23 C         137.7980  140.9950  162.1574 C.3     1  UNL1        0.0369
     24 C         138.4239  139.8590  162.9109 C.3     1  UNL1        0.0745
     25 C         138.7737  140.0229  164.3604 C.3     1  UNL1        0.0369
     26 C         138.4975  141.3227  165.0563 C.3     1  UNL1        0.0738
     27 C         137.5953  143.7584  164.9987 C.3     1  UNL1        0.0768
     28 C         138.6802  144.7864  165.1260 C.3     1  UNL1        0.0437
     29 C         142.3778  144.4821  162.5794 C.ar    1  UNL1        0.1387
     30 C         142.3633  143.8842  163.9550 C.ar    1  UNL1        0.0366
     31 C         141.1308  143.9856  164.8039 C.ar    1  UNL1       -0.0011
     32 C         139.9127  144.6850  164.2771 C.ar    1  UNL1       -0.0206
     33 C         139.9273  145.2828  162.9015 C.ar    1  UNL1       -0.0011
     34 C         141.1599  145.1814  162.0526 C.ar    1  UNL1        0.0366
     35 C         144.1172  143.0355  161.3019 C.3     1  UNL1        0.2525
     36 O         143.6103  144.3807  161.7305 O.3     1  UNL1       -0.4714
@<TRIPOS>BOND
     1    35    36    1
     2    36    29    1
     3    29    30   ar
     4    30    31   ar
     5    31    32   ar
     6    32    28    1
     7    28    27    1
     8    27    21    1
     9    21    22    1
    10    22    23    1
    11    23    24    1
    12    24     1    1
    13     1     3    1
    14     3     4   ar
    15     4     5   ar
    16     5     6   ar
    17     6     7   ar
    18     7     8   ar
    19     8     9   ar
    20     9    10   ar
    21    10    11   ar
    22    11    12    1
    23    12    13    1
    24    13    14   ar
    25    14    15   ar
    26    15    16   ar
    27    16    17    1
    28    16    18   ar
    29    18    19   ar
    30    19    20    1
    31    24    25    1
    32    25    26    1
    33    32    33   ar
    34    33    34   ar
    35    34    29   ar
    36    26    21    1
    37    11     3   ar
    38    19    13   ar
    39    10     5   ar
    40     1     2    1
