@<TRIPOS>MOLECULE
*****
 34 39 0 0 0
SMALL
GASTEIGER

@<TRIPOS>ATOM
      1 C         142.5883  137.8689  157.3070 C.ar    1  UNL1        0.1028
      2 C         142.7831  138.4712  155.9472 C.ar    1  UNL1        0.0131
      3 C         142.4803  139.9225  155.7192 C.ar    1  UNL1       -0.0015
      4 C         141.9683  141.0436  156.6408 C.ar    1  UNL1        0.0035
      5 C         142.1266  139.7152  157.3191 C.ar    1  UNL1        0.0358
      6 C         142.0907  138.7179  158.4390 C.ar    1  UNL1        0.1545
      7 O         141.8661  138.2038  159.8301 O.3     1  UNL1       -0.4528
      8 C         141.4870  138.2511  161.2807 C.ar    1  UNL1        0.1454
      9 C         141.4077  137.1860  162.6385 C.ar    1  UNL1        0.0375
     10 C         140.9888  137.4240  164.0590 C.ar    1  UNL1        0.0032
     11 C         140.5405  138.7890  164.4899 C.ar    1  UNL1        0.0014
     12 C         140.1218  139.0261  165.9107 C.ar    1  UNL1        0.0001
     13 C         139.6734  140.3908  166.3426 C.ar    1  UNL1        0.0013
     14 C         139.6436  141.5184  165.3539 C.ar    1  UNL1        0.0149
     15 C         140.0623  141.2813  163.9332 C.ar    1  UNL1        0.0539
     16 C         140.5108  139.9166  163.5012 C.ar    1  UNL1        0.0167
     17 C         141.0111  138.8525  162.5697 C.ar    1  UNL1        0.0387
     18 N         139.7340  142.7388  163.7998 N.am    1  UNL1       -0.2575
     19 C         139.2414  143.9127  164.5931 C.3     1  UNL1        0.1001
     20 C         139.1790  145.0983  163.6764 C.3     1  UNL1        0.0470
     21 C         139.6116  145.0645  162.0016 C.3     1  UNL1        0.1340
     22 N         139.8362  145.5786  160.6104 N.3     1  UNL1       -0.2863
     23 C         140.2153  145.5313  159.1599 C.3     1  UNL1        0.1151
     24 C         140.6912  144.9299  157.8708 C.ar    1  UNL1        0.0739
     25 C         140.5707  146.2071  157.0935 C.ar    1  UNL1        0.1147
     26 N         140.9965  145.9324  155.6817 N.ar    1  UNL1       -0.2226
     27 C         141.3802  144.4854  155.5864 C.ar    1  UNL1        0.1786
     28 N         141.1915  143.8658  156.9394 N.ar    1  UNL1       -0.3070
     29 C         141.6399  142.5012  156.5075 C.3     1  UNL1        0.1341
     30 C         139.5757  144.0673  163.1216 C.2     1  UNL1        0.2437
     31 O         139.3271  144.3527  163.8231 O.2     1  UNL1       -0.2731
     32 H         140.4656  146.3385  160.8690 H       1  UNL1        0.1240
     33 N         143.1941  134.9663  157.7628 N.1     1  UNL1       -0.1907
     34 C         142.8912  136.4176  157.5349 C.1     1  UNL1        0.1035
@<TRIPOS>BOND
     1    33    34    3
     2    34     1    1
     3     1     2   ar
     4     2     3   ar
     5     3     4   ar
     6     4     5   ar
     7     5     6   ar
     8     6     7    1
     9     7     8    1
    10     8     9   ar
    11     9    10   ar
    12    10    11   ar
    13    11    12   ar
    14    12    13   ar
    15    13    14   ar
    16    14    15   ar
    17    15    16   ar
    18    16    17   ar
    19    15    18    1
    20    18    19    1
    21    19    20    1
    22    21    20    1
    23    21    22    1
    24    22    23    1
    25    23    24    1
    26    24    25   ar
    27    25    26   ar
    28    26    27   ar
    29    27    28   ar
    30    28    29    1
    31    21    30    1
    32    30    31    2
    33     6     1   ar
    34    17     8   ar
    35    30    18   am
    36    29     4    1
    37    16    11   ar
    38    28    24   ar
    39    22    32    1
@<TRIPOS>MOLECULE
*****
 34 39 0 0 0
SMALL
GASTEIGER

@<TRIPOS>ATOM
      1 C         140.1945  144.7251  156.6696 C.ar    1  UNL1        0.1028
      2 C         140.5299  144.1229  155.3374 C.ar    1  UNL1        0.0131
      3 C         141.0390  142.7141  155.2579 C.ar    1  UNL1       -0.0015
      4 C         141.3245  141.6412  156.3236 C.ar    1  UNL1        0.0035
      5 C         140.8124  142.9372  156.8786 C.ar    1  UNL1        0.0358
      6 C         140.3680  143.9186  157.9224 C.ar    1  UNL1        0.1545
      7 O         140.0591  144.4358  159.2960 O.3     1  UNL1       -0.4528
      8 C         139.9325  144.4103  160.7905 C.ar    1  UNL1        0.1454
      9 C         139.4420  145.4607  162.0712 C.ar    1  UNL1        0.0375
     10 C         139.3824  145.2499  163.5551 C.ar    1  UNL1        0.0032
     11 C         139.7979  143.9340  164.1430 C.ar    1  UNL1        0.0014
     12 C         139.7379  143.7241  165.6270 C.ar    1  UNL1        0.0001
     13 C         140.1532  142.4085  166.2159 C.ar    1  UNL1        0.0013
     14 C         140.6283  141.3027  165.3207 C.ar    1  UNL1        0.0149
     15 C         140.6883  141.5125  163.8367 C.ar    1  UNL1        0.0539
     16 C         140.2731  142.8282  163.2479 C.ar    1  UNL1        0.0167
     17 C         140.0077  143.8457  162.1781 C.ar    1  UNL1        0.0387
     18 N         141.1902  140.0991  163.8549 N.am    1  UNL1       -0.2575
     19 C         141.5060  138.9732  164.7945 C.3     1  UNL1        0.1001
     20 C         141.9936  137.8123  163.9795 C.3     1  UNL1        0.0470
     21 C         142.1466  137.8217  162.2562 C.3     1  UNL1        0.1340
     22 N         142.4556  137.3044  160.8825 N.3     1  UNL1       -0.2863
     23 C         142.5822  137.3300  159.3880 C.3     1  UNL1        0.1151
     24 C         142.5070  137.8945  158.0003 C.ar    1  UNL1        0.0739
     25 C         143.0117  136.6468  157.3382 C.ar    1  UNL1        0.1147
     26 N         143.0581  136.8932  155.8593 N.ar    1  UNL1       -0.2226
     27 C         142.5822  138.2932  155.6075 C.ar    1  UNL1        0.1786
     28 N         142.2416  138.9121  156.9307 N.ar    1  UNL1       -0.3070
     29 C         141.8264  140.2277  156.3419 C.3     1  UNL1        0.1341
     30 C         141.7023  138.8030  163.3000 C.2     1  UNL1        0.2437
     31 O         141.7291  138.5364  164.0507 O.2     1  UNL1       -0.2731
     32 H         141.8575  136.4797  160.9330 H       1  UNL1        0.1240
     33 N         139.1763  147.5425  156.8286 N.1     1  UNL1       -0.1907
     34 C         139.6854  146.1338  156.7491 C.1     1  UNL1        0.1035
@<TRIPOS>BOND
     1    33    34    3
     2    34     1    1
     3     1     2   ar
     4     2     3   ar
     5     3     4   ar
     6     4     5   ar
     7     5     6   ar
     8     6     7    1
     9     7     8    1
    10     8     9   ar
    11     9    10   ar
    12    10    11   ar
    13    11    12   ar
    14    12    13   ar
    15    13    14   ar
    16    14    15   ar
    17    15    16   ar
    18    16    17   ar
    19    15    18    1
    20    18    19    1
    21    19    20    1
    22    21    20    1
    23    21    22    1
    24    22    23    1
    25    23    24    1
    26    24    25   ar
    27    25    26   ar
    28    26    27   ar
    29    27    28   ar
    30    28    29    1
    31    21    30    1
    32    30    31    2
    33     6     1   ar
    34    17     8   ar
    35    30    18   am
    36    29     4    1
    37    16    11   ar
    38    28    24   ar
    39    22    32    1
@<TRIPOS>MOLECULE
*****
 34 39 0 0 0
SMALL
GASTEIGER

@<TRIPOS>ATOM
      1 C         139.6253  146.6044  156.1943 C.ar    1  UNL1        0.1028
      2 C         139.7235  146.3542  154.7187 C.ar    1  UNL1        0.0131
      3 C         140.3689  145.0984  154.2121 C.ar    1  UNL1       -0.0015
      4 C         141.0145  143.8933  154.9186 C.ar    1  UNL1        0.0035
      5 C         140.4867  144.9422  155.8520 C.ar    1  UNL1        0.0358
      6 C         140.1724  145.5988  157.1636 C.ar    1  UNL1        0.1545
      7 O         140.1194  145.7630  158.6535 O.3     1  UNL1       -0.4528
      8 C         140.3359  145.4098  160.0953 C.ar    1  UNL1        0.1454
      9 C         140.0218  146.0765  161.6578 C.ar    1  UNL1        0.0375
     10 C         140.3230  145.5583  163.0328 C.ar    1  UNL1        0.0032
     11 C         141.0165  144.2390  163.2018 C.ar    1  UNL1        0.0014
     12 C         141.3173  143.7217  164.5772 C.ar    1  UNL1        0.0001
     13 C         142.0108  142.4024  164.7473 C.ar    1  UNL1        0.0013
     14 C         142.4034  141.6006  163.5419 C.ar    1  UNL1        0.0149
     15 C         142.1025  142.1180  162.1665 C.ar    1  UNL1        0.0539
     16 C         141.4091  143.4372  161.9965 C.ar    1  UNL1        0.0167
     17 C         140.7887  144.5931  161.2691 C.ar    1  UNL1        0.0387
     18 N         142.7634  140.8364  161.7534 N.am    1  UNL1       -0.2575
     19 C         143.4165  139.6113  162.3214 C.3     1  UNL1        0.1001
     20 C         143.8457  138.7419  161.1770 C.3     1  UNL1        0.0470
     21 C         143.6055  139.1310  159.5084 C.3     1  UNL1        0.1340
     22 N         143.6585  138.9668  158.0183 N.3     1  UNL1       -0.2863
     23 C         143.4421  139.3199  156.5767 C.3     1  UNL1        0.1151
     24 C         142.9892  140.1366  155.4028 C.ar    1  UNL1        0.0739
     25 C         143.4798  139.1549  154.3802 C.ar    1  UNL1        0.1147
     26 N         143.1627  139.7042  153.0209 N.ar    1  UNL1       -0.2226
     27 C         142.4761  141.0253  153.2034 C.ar    1  UNL1        0.1786
     28 N         142.3688  141.2925  154.6755 N.ar    1  UNL1       -0.3070
     29 C         141.6754  142.6117  154.5055 C.3     1  UNL1        0.1341
     30 C         143.2912  139.7875  160.8200 C.2     1  UNL1        0.2437
     31 O         143.5182  139.3807  161.4669 O.2     1  UNL1       -0.2731
     32 H         143.1917  138.0604  157.9860 H       1  UNL1        0.1240
     33 N         138.3346  149.1158  157.2075 N.1     1  UNL1       -0.1907
     34 C         138.9799  147.8601  156.7009 C.1     1  UNL1        0.1035
@<TRIPOS>BOND
     1    33    34    3
     2    34     1    1
     3     1     2   ar
     4     2     3   ar
     5     3     4   ar
     6     4     5   ar
     7     5     6   ar
     8     6     7    1
     9     7     8    1
    10     8     9   ar
    11     9    10   ar
    12    10    11   ar
    13    11    12   ar
    14    12    13   ar
    15    13    14   ar
    16    14    15   ar
    17    15    16   ar
    18    16    17   ar
    19    15    18    1
    20    18    19    1
    21    19    20    1
    22    21    20    1
    23    21    22    1
    24    22    23    1
    25    23    24    1
    26    24    25   ar
    27    25    26   ar
    28    26    27   ar
    29    27    28   ar
    30    28    29    1
    31    21    30    1
    32    30    31    2
    33     6     1   ar
    34    17     8   ar
    35    30    18   am
    36    29     4    1
    37    16    11   ar
    38    28    24   ar
    39    22    32    1
@<TRIPOS>MOLECULE
*****
 34 39 0 0 0
SMALL
GASTEIGER

@<TRIPOS>ATOM
      1 C         142.3792  137.5927  156.8168 C.ar    1  UNL1        0.1028
      2 C         142.0901  137.9046  155.3784 C.ar    1  UNL1        0.0131
      3 C         141.5962  139.2669  154.9908 C.ar    1  UNL1       -0.0015
      4 C         141.2877  140.5392  155.7999 C.ar    1  UNL1        0.0035
      5 C         141.7710  139.3863  156.6288 C.ar    1  UNL1        0.0358
      6 C         142.1744  138.6432  157.8678 C.ar    1  UNL1        0.1545
      7 O         142.4365  138.4231  159.3282 O.3     1  UNL1       -0.4528
      8 C         142.5174  138.7595  160.7878 C.ar    1  UNL1        0.1454
      9 C         142.9590  137.9982  162.2743 C.ar    1  UNL1        0.0375
     10 C         142.9750  138.5137  163.6828 C.ar    1  UNL1        0.0032
     11 C         142.5534  139.9243  163.9700 C.ar    1  UNL1        0.0014
     12 C         142.5697  140.4389  165.3789 C.ar    1  UNL1        0.0001
     13 C         142.1483  141.8494  165.6670 C.ar    1  UNL1        0.0013
     14 C         141.7106  142.7452  164.5464 C.ar    1  UNL1        0.0149
     15 C         141.6943  142.2306  163.1375 C.ar    1  UNL1        0.0539
     16 C         142.1157  140.8201  162.8494 C.ar    1  UNL1        0.0167
     17 C         142.4048  139.6013  162.0242 C.ar    1  UNL1        0.0387
     18 N         141.2047  143.6179  162.8449 N.am    1  UNL1       -0.2575
     19 C         140.8703  144.9157  163.5186 C.3     1  UNL1        0.1001
     20 C         140.4182  145.8823  162.4645 C.3     1  UNL1        0.0470
     21 C         140.3180  145.5140  160.7770 C.3     1  UNL1        0.1340
     22 N         140.0559  145.7340  159.3165 N.3     1  UNL1       -0.2863
     23 C         139.9750  145.3976  157.8570 C.3     1  UNL1        0.1151
     24 C         140.0876  144.5559  156.6205 C.ar    1  UNL1        0.0739
     25 C         139.6147  145.6392  155.6972 C.ar    1  UNL1        0.1147
     26 N         139.6114  145.0899  154.3014 N.ar    1  UNL1       -0.2226
     27 C         140.0823  143.6670  154.3621 C.ar    1  UNL1        0.1786
     28 N         140.3767  143.3370  155.7954 N.ar    1  UNL1       -0.3070
     29 C         140.7981  141.9265  155.5072 C.3     1  UNL1        0.1341
     30 C         140.7214  144.7709  162.0160 C.2     1  UNL1        0.2437
     31 O         140.6739  145.1883  162.6935 O.2     1  UNL1       -0.2731
     32 H         140.6595  146.5497  159.2131 H       1  UNL1        0.1240
     33 N         143.3669  134.8681  157.5918 N.1     1  UNL1       -0.1907
     34 C         142.8731  136.2304  157.2043 C.1     1  UNL1        0.1035
@<TRIPOS>BOND
     1    33    34    3
     2    34     1    1
     3     1     2   ar
     4     2     3   ar
     5     3     4   ar
     6     4     5   ar
     7     5     6   ar
     8     6     7    1
     9     7     8    1
    10     8     9   ar
    11     9    10   ar
    12    10    11   ar
    13    11    12   ar
    14    12    13   ar
    15    13    14   ar
    16    14    15   ar
    17    15    16   ar
    18    16    17   ar
    19    15    18    1
    20    18    19    1
    21    19    20    1
    22    21    20    1
    23    21    22    1
    24    22    23    1
    25    23    24    1
    26    24    25   ar
    27    25    26   ar
    28    26    27   ar
    29    27    28   ar
    30    28    29    1
    31    21    30    1
    32    30    31    2
    33     6     1   ar
    34    17     8   ar
    35    30    18   am
    36    29     4    1
    37    16    11   ar
    38    28    24   ar
    39    22    32    1
@<TRIPOS>MOLECULE
*****
 34 39 0 0 0
SMALL
GASTEIGER

@<TRIPOS>ATOM
      1 C         142.6113  136.2805  156.6523 C.ar    1  UNL1        0.1028
      2 C         142.0864  136.2297  155.2482 C.ar    1  UNL1        0.0131
      3 C         141.4052  137.4288  154.6581 C.ar    1  UNL1       -0.0015
      4 C         141.0893  138.8310  155.2081 C.ar    1  UNL1        0.0035
      5 C         141.8027  137.9370  156.1785 C.ar    1  UNL1        0.0358
      6 C         142.4553  137.5306  157.4666 C.ar    1  UNL1        0.1545
      7 O         142.9475  137.6739  158.8762 O.3     1  UNL1       -0.4528
      8 C         143.2046  138.3450  160.1929 C.ar    1  UNL1        0.1454
      9 C         143.9325  137.9810  161.7167 C.ar    1  UNL1        0.0375
     10 C         144.1000  138.8097  162.9557 C.ar    1  UNL1        0.0032
     11 C         143.5830  140.2173  162.9921 C.ar    1  UNL1        0.0014
     12 C         143.7510  141.0453  164.2316 C.ar    1  UNL1        0.0001
     13 C         143.2343  142.4530  164.2689 C.ar    1  UNL1        0.0013
     14 C         142.5496  143.0328  163.0668 C.ar    1  UNL1        0.0149
     15 C         142.3817  142.2049  161.8273 C.ar    1  UNL1        0.0539
     16 C         142.8984  140.7971  161.7900 C.ar    1  UNL1        0.0167
     17 C         143.1873  139.4417  161.2160 C.ar    1  UNL1        0.0387
     18 N         141.7159  143.4506  161.3224 N.am    1  UNL1       -0.2575
     19 C         141.3523  144.8443  161.7409 C.3     1  UNL1        0.1001
     20 C         140.6559  145.5073  160.5896 C.3     1  UNL1        0.0470
     21 C         140.3500  144.7510  159.0639 C.3     1  UNL1        0.1340
     22 N         139.8577  144.6077  157.6542 N.3     1  UNL1       -0.2863
     23 C         139.6007  143.9366  156.3376 C.3     1  UNL1        0.1151
     24 C         139.6179  142.8398  155.3144 C.ar    1  UNL1        0.0739
     25 C         138.9081  143.6451  154.2667 C.ar    1  UNL1        0.1147
     26 N         138.7583  142.7874  153.0453 N.ar    1  UNL1       -0.2226
     27 C         139.3756  141.4520  153.3381 C.ar    1  UNL1        0.1786
     28 N         139.9069  141.4844  154.7405 N.ar    1  UNL1       -0.3070
     29 C         140.4236  140.0767  154.7031 C.3     1  UNL1        0.1341
     30 C         141.0025  144.3447  160.3520 C.2     1  UNL1        0.2437
     31 O         141.0115  144.9040  160.9199 O.2     1  UNL1       -0.2731
     32 H         140.3536  145.4151  157.2767 H       1  UNL1        0.1240
     33 N         143.9736  133.8823  157.8324 N.1     1  UNL1       -0.1907
     34 C         143.2925  135.0814  157.2424 C.1     1  UNL1        0.1035
@<TRIPOS>BOND
     1    33    34    3
     2    34     1    1
     3     1     2   ar
     4     2     3   ar
     5     3     4   ar
     6     4     5   ar
     7     5     6   ar
     8     6     7    1
     9     7     8    1
    10     8     9   ar
    11     9    10   ar
    12    10    11   ar
    13    11    12   ar
    14    12    13   ar
    15    13    14   ar
    16    14    15   ar
    17    15    16   ar
    18    16    17   ar
    19    15    18    1
    20    18    19    1
    21    19    20    1
    22    21    20    1
    23    21    22    1
    24    22    23    1
    25    23    24    1
    26    24    25   ar
    27    25    26   ar
    28    26    27   ar
    29    27    28   ar
    30    28    29    1
    31    21    30    1
    32    30    31    2
    33     6     1   ar
    34    17     8   ar
    35    30    18   am
    36    29     4    1
    37    16    11   ar
    38    28    24   ar
    39    22    32    1
@<TRIPOS>MOLECULE
*****
 34 39 0 0 0
SMALL
GASTEIGER

@<TRIPOS>ATOM
      1 C         145.4750  142.5044  157.3732 C.ar    1  UNL1        0.1028
      2 C         145.0210  142.4776  155.9439 C.ar    1  UNL1        0.0131
      3 C         143.5883  142.1763  155.6175 C.ar    1  UNL1       -0.0015
      4 C         142.3596  141.8583  156.4879 C.ar    1  UNL1        0.0035
      5 C         143.6189  142.0976  157.2669 C.ar    1  UNL1        0.0358
      6 C         144.4964  142.2298  158.4763 C.ar    1  UNL1        0.1545
      7 O         144.8583  142.2347  159.9319 O.3     1  UNL1       -0.4528
      8 C         144.6497  142.1116  161.4123 C.ar    1  UNL1        0.1454
      9 C         145.5690  142.2403  162.8693 C.ar    1  UNL1        0.0375
     10 C         145.1720  142.0776  164.3066 C.ar    1  UNL1        0.0032
     11 C         143.7528  141.7441  164.6596 C.ar    1  UNL1        0.0014
     12 C         143.3568  141.5816  166.0972 C.ar    1  UNL1        0.0001
     13 C         141.9378  141.2480  166.4512 C.ar    1  UNL1        0.0013
     14 C         140.9149  141.0770  165.3676 C.ar    1  UNL1        0.0149
     15 C         141.3109  141.2395  163.9300 C.ar    1  UNL1        0.0539
     16 C         142.7299  141.5730  163.5760 C.ar    1  UNL1        0.0167
     17 C         143.9023  141.8793  162.6918 C.ar    1  UNL1        0.0387
     18 N         139.8614  140.9295  163.6999 N.am    1  UNL1       -0.2575
     19 C         138.5939  140.6098  164.4357 C.3     1  UNL1        0.1001
     20 C         137.5047  140.4204  163.4221 C.3     1  UNL1        0.0470
     21 C         137.7247  140.5580  161.7115 C.3     1  UNL1        0.1340
     22 N         137.3627  140.5530  160.2558 N.3     1  UNL1       -0.2863
     23 C         137.5713  140.6761  158.7755 C.3     1  UNL1        0.1151
     24 C         138.3187  140.9085  157.4959 C.ar    1  UNL1        0.0739
     25 C         137.1219  140.6881  156.6189 C.ar    1  UNL1        0.1147
     26 N         137.5547  140.8582  155.1928 N.ar    1  UNL1       -0.2226
     27 C         139.0190  141.1837  155.1884 C.ar    1  UNL1        0.1786
     28 N         139.4912  141.2147  156.6118 N.ar    1  UNL1       -0.3070
     29 C         140.9101  141.5483  156.2578 C.3     1  UNL1        0.1341
     30 C         138.6021  140.6901  162.9209 C.2     1  UNL1        0.2437
     31 O         138.2374  140.5729  163.6200 O.2     1  UNL1       -0.2731
     32 H         136.6082  141.2362  160.3227 H       1  UNL1        0.1240
     33 N         148.3404  143.1071  158.0260 N.1     1  UNL1       -0.1907
     34 C         146.9078  142.8057  157.6996 C.1     1  UNL1        0.1035
@<TRIPOS>BOND
     1    33    34    3
     2    34     1    1
     3     1     2   ar
     4     2     3   ar
     5     3     4   ar
     6     4     5   ar
     7     5     6   ar
     8     6     7    1
     9     7     8    1
    10     8     9   ar
    11     9    10   ar
    12    10    11   ar
    13    11    12   ar
    14    12    13   ar
    15    13    14   ar
    16    14    15   ar
    17    15    16   ar
    18    16    17   ar
    19    15    18    1
    20    18    19    1
    21    19    20    1
    22    21    20    1
    23    21    22    1
    24    22    23    1
    25    23    24    1
    26    24    25   ar
    27    25    26   ar
    28    26    27   ar
    29    27    28   ar
    30    28    29    1
    31    21    30    1
    32    30    31    2
    33     6     1   ar
    34    17     8   ar
    35    30    18   am
    36    29     4    1
    37    16    11   ar
    38    28    24   ar
    39    22    32    1
@<TRIPOS>MOLECULE
*****
 34 39 0 0 0
SMALL
GASTEIGER

@<TRIPOS>ATOM
      1 C         135.4146  140.8275  156.2918 C.ar    1  UNL1        0.1028
      2 C         135.2953  141.5164  154.9648 C.ar    1  UNL1        0.0131
      3 C         136.4560  142.2912  154.4149 C.ar    1  UNL1       -0.0015
      4 C         137.8741  142.5709  154.9433 C.ar    1  UNL1        0.0035
      5 C         137.0347  141.7254  155.8545 C.ar    1  UNL1        0.0358
      6 C         136.6947  140.9132  157.0690 C.ar    1  UNL1        0.1545
      7 O         136.9060  140.2582  158.4017 O.3     1  UNL1       -0.4528
      8 C         137.6364  139.8600  159.6500 C.ar    1  UNL1        0.1454
      9 C         137.3500  138.9456  161.0874 C.ar    1  UNL1        0.0375
     10 C         138.2329  138.6493  162.2633 C.ar    1  UNL1        0.0032
     11 C         139.6312  139.1906  162.3065 C.ar    1  UNL1        0.0014
     12 C         140.5133  138.8937  163.4828 C.ar    1  UNL1        0.0001
     13 C         141.9118  139.4345  163.5269 C.ar    1  UNL1        0.0013
     14 C         142.4280  140.2722  162.3948 C.ar    1  UNL1        0.0149
     15 C         141.5459  140.5691  161.2185 C.ar    1  UNL1        0.0539
     16 C         140.1474  140.0282  161.1744 C.ar    1  UNL1        0.0167
     17 C         138.7746  139.7793  160.6235 C.ar    1  UNL1        0.0387
     18 N         142.7570  141.3194  160.7492 N.am    1  UNL1       -0.2575
     19 C         144.1602  141.6622  161.1534 C.3     1  UNL1        0.1001
     20 C         144.7614  142.5073  160.0698 C.3     1  UNL1        0.0470
     21 C         143.9363  142.9772  158.6236 C.3     1  UNL1        0.1340
     22 N         143.7250  143.6322  157.2908 N.3     1  UNL1       -0.2863
     23 C         142.9947  144.0304  156.0426 C.3     1  UNL1        0.1151
     24 C         141.8564  144.1112  155.0689 C.ar    1  UNL1        0.0739
     25 C         142.6040  144.9605  154.0842 C.ar    1  UNL1        0.1147
     26 N         141.6932  145.2364  152.9247 N.ar    1  UNL1       -0.2226
     27 C         140.3827  144.5576  153.1929 C.ar    1  UNL1        0.1786
     28 N         140.4836  143.8621  154.5182 N.ar    1  UNL1       -0.3070
     29 C         139.0852  143.3213  154.4740 C.3     1  UNL1        0.1341
     30 C         143.5964  142.1650  159.8380 C.2     1  UNL1        0.2437
     31 O         144.1792  142.1006  160.3781 O.2     1  UNL1       -0.2731
     32 H         144.5248  143.2042  156.8243 H       1  UNL1        0.1240
     33 N         133.0933  139.2778  157.3917 N.1     1  UNL1       -0.1907
     34 C         134.2539  140.0527  156.8418 C.1     1  UNL1        0.1035
@<TRIPOS>BOND
     1    33    34    3
     2    34     1    1
     3     1     2   ar
     4     2     3   ar
     5     3     4   ar
     6     4     5   ar
     7     5     6   ar
     8     6     7    1
     9     7     8    1
    10     8     9   ar
    11     9    10   ar
    12    10    11   ar
    13    11    12   ar
    14    12    13   ar
    15    13    14   ar
    16    14    15   ar
    17    15    16   ar
    18    16    17   ar
    19    15    18    1
    20    18    19    1
    21    19    20    1
    22    21    20    1
    23    21    22    1
    24    22    23    1
    25    23    24    1
    26    24    25   ar
    27    25    26   ar
    28    26    27   ar
    29    27    28   ar
    30    28    29    1
    31    21    30    1
    32    30    31    2
    33     6     1   ar
    34    17     8   ar
    35    30    18   am
    36    29     4    1
    37    16    11   ar
    38    28    24   ar
    39    22    32    1
@<TRIPOS>MOLECULE
*****
 34 39 0 0 0
SMALL
GASTEIGER

@<TRIPOS>ATOM
      1 C         138.0349  140.8994  156.5777 C.ar    1  UNL1        0.1028
      2 C         138.6639  141.0065  155.2203 C.ar    1  UNL1        0.0131
      3 C         140.1289  141.3032  155.0936 C.ar    1  UNL1       -0.0015
      4 C         141.2422  141.5462  156.1280 C.ar    1  UNL1        0.0035
      5 C         139.8935  141.2806  156.7282 C.ar    1  UNL1        0.0358
      6 C         138.8708  141.0889  157.8087 C.ar    1  UNL1        0.1545
      7 O         138.3301  141.0004  159.2050 O.3     1  UNL1       -0.4528
      8 C         138.3535  141.0285  160.7047 C.ar    1  UNL1        0.1454
      9 C         137.2586  140.8258  162.0254 C.ar    1  UNL1        0.0375
     10 C         137.4746  140.8928  163.5082 C.ar    1  UNL1        0.0032
     11 C         138.8416  141.1800  164.0547 C.ar    1  UNL1        0.0014
     12 C         139.0567  141.2469  165.5377 C.ar    1  UNL1        0.0001
     13 C         140.4234  141.5340  166.0852 C.ar    1  UNL1        0.0013
     14 C         141.5750  141.7543  165.1498 C.ar    1  UNL1        0.0149
     15 C         141.3600  141.6874  163.6668 C.ar    1  UNL1        0.0539
     16 C         139.9933  141.4003  163.1193 C.ar    1  UNL1        0.0167
     17 C         138.9376  141.1689  162.0791 C.ar    1  UNL1        0.0387
     18 N         142.8296  141.9865  163.6382 N.am    1  UNL1       -0.2575
     19 C         143.9982  142.2388  164.5441 C.3     1  UNL1        0.1001
     20 C         145.2071  142.4720  163.6873 C.3     1  UNL1        0.0470
     21 C         145.2009  142.4438  161.9574 C.3     1  UNL1        0.1340
     22 N         145.7417  142.5324  160.5610 N.3     1  UNL1       -0.2863
     23 C         145.7182  142.5043  159.0615 C.3     1  UNL1        0.1151
     24 C         145.1342  142.3639  157.6870 C.ar    1  UNL1        0.0739
     25 C         146.4330  142.6177  156.9808 C.ar    1  UNL1        0.1147
     26 N         146.1800  142.5431  155.5042 N.ar    1  UNL1       -0.2226
     27 C         144.7248  142.2433  155.2978 C.ar    1  UNL1        0.1786
     28 N         144.0785  142.1325  156.6469 N.ar    1  UNL1       -0.3070
     29 C         142.7118  141.8454  156.0994 C.3     1  UNL1        0.1341
     30 C         144.1783  142.2522  163.0380 C.2     1  UNL1        0.2437
     31 O         144.4540  142.3199  163.7829 O.2     1  UNL1       -0.2731
     32 H         146.4757  141.8338  160.6776 H       1  UNL1        0.1240
     33 N         135.1051  140.3061  156.8309 N.1     1  UNL1       -0.1907
     34 C         136.5700  140.6027  156.7044 C.1     1  UNL1        0.1035
@<TRIPOS>BOND
     1    33    34    3
     2    34     1    1
     3     1     2   ar
     4     2     3   ar
     5     3     4   ar
     6     4     5   ar
     7     5     6   ar
     8     6     7    1
     9     7     8    1
    10     8     9   ar
    11     9    10   ar
    12    10    11   ar
    13    11    12   ar
    14    12    13   ar
    15    13    14   ar
    16    14    15   ar
    17    15    16   ar
    18    16    17   ar
    19    15    18    1
    20    18    19    1
    21    19    20    1
    22    21    20    1
    23    21    22    1
    24    22    23    1
    25    23    24    1
    26    24    25   ar
    27    25    26   ar
    28    26    27   ar
    29    27    28   ar
    30    28    29    1
    31    21    30    1
    32    30    31    2
    33     6     1   ar
    34    17     8   ar
    35    30    18   am
    36    29     4    1
    37    16    11   ar
    38    28    24   ar
    39    22    32    1
@<TRIPOS>MOLECULE
*****
 34 39 0 0 0
SMALL
GASTEIGER

@<TRIPOS>ATOM
      1 C         138.4011  142.8782  154.7967 C.ar    1  UNL1        0.1028
      2 C         138.1632  141.8928  153.6912 C.ar    1  UNL1        0.0131
      3 C         138.7467  140.5136  153.7772 C.ar    1  UNL1       -0.0015
      4 C         139.6139  139.8065  154.8338 C.ar    1  UNL1        0.0035
      5 C         139.2580  141.2223  155.1787 C.ar    1  UNL1        0.0358
      6 C         139.2225  142.4844  155.9885 C.ar    1  UNL1        0.1545
      7 O         139.5130  143.4007  157.1400 O.3     1  UNL1       -0.4528
      8 C         140.0851  143.8318  158.4579 C.ar    1  UNL1        0.1454
      9 C         140.1085  145.2326  159.4686 C.ar    1  UNL1        0.0375
     10 C         140.7573  145.4822  160.7978 C.ar    1  UNL1        0.0032
     11 C         141.5510  144.3957  161.4609 C.ar    1  UNL1        0.0014
     12 C         142.1994  144.6464  162.7900 C.ar    1  UNL1        0.0001
     13 C         142.9933  143.5604  163.4539 C.ar    1  UNL1        0.0013
     14 C         143.1387  142.2240  162.7886 C.ar    1  UNL1        0.0149
     15 C         142.4902  141.9734  161.4595 C.ar    1  UNL1        0.0539
     16 C         141.6964  143.0593  160.7956 C.ar    1  UNL1        0.0167
     17 C         140.8518  143.7118  159.7416 C.ar    1  UNL1        0.0387
     18 N         143.1124  140.6195  161.6321 N.am    1  UNL1       -0.2575
     19 C         143.9553  139.8230  162.5836 C.3     1  UNL1        0.1001
     20 C         144.1548  138.4579  161.9949 C.3     1  UNL1        0.0470
     21 C         143.5038  137.9416  160.4774 C.3     1  UNL1        0.1340
     22 N         143.2134  137.0253  159.3259 N.3     1  UNL1       -0.2863
     23 C         142.6412  136.5943  158.0080 C.3     1  UNL1        0.1151
     24 C         141.8745  136.7142  156.7243 C.ar    1  UNL1        0.0739
     25 C         142.1692  135.3122  156.2798 C.ar    1  UNL1        0.1147
     26 N         141.5068  135.0983  154.9511 N.ar    1  UNL1       -0.2226
     27 C         140.8027  136.3681  154.5744 C.ar    1  UNL1        0.1786
     28 N         141.0300  137.3668  155.6703 N.ar    1  UNL1       -0.3070
     29 C         140.2361  138.4527  155.0065 C.3     1  UNL1        0.1341
     30 C         143.4684  139.2037  161.2873 C.2     1  UNL1        0.2437
     31 O         143.8663  139.1762  161.9775 O.2     1  UNL1       -0.2731
     32 H         142.8088  136.2700  159.8793 H       1  UNL1        0.1240
     33 N         137.2342  145.6366  154.6246 N.1     1  UNL1       -0.1907
     34 C         137.8176  144.2574  154.7107 C.1     1  UNL1        0.1035
@<TRIPOS>BOND
     1    33    34    3
     2    34     1    1
     3     1     2   ar
     4     2     3   ar
     5     3     4   ar
     6     4     5   ar
     7     5     6   ar
     8     6     7    1
     9     7     8    1
    10     8     9   ar
    11     9    10   ar
    12    10    11   ar
    13    11    12   ar
    14    12    13   ar
    15    13    14   ar
    16    14    15   ar
    17    15    16   ar
    18    16    17   ar
    19    15    18    1
    20    18    19    1
    21    19    20    1
    22    21    20    1
    23    21    22    1
    24    22    23    1
    25    23    24    1
    26    24    25   ar
    27    25    26   ar
    28    26    27   ar
    29    27    28   ar
    30    28    29    1
    31    21    30    1
    32    30    31    2
    33     6     1   ar
    34    17     8   ar
    35    30    18   am
    36    29     4    1
    37    16    11   ar
    38    28    24   ar
    39    22    32    1
