@<TRIPOS>MOLECULE
*****
 30 34 0 0 0
SMALL
GASTEIGER

@<TRIPOS>ATOM
      1 C         137.4108  138.4262  167.4430 C.3     1  UNL1        0.0285
      2 C         138.5083  139.0074  166.6017 C.3     1  UNL1        0.1321
      3 C         138.6014  138.6594  165.1456 C.3     1  UNL1        0.2279
      4 O         139.6989  139.2405  164.3043 O.3     1  UNL1       -0.4707
      5 C         140.7033  140.1697  164.9191 C.ar    1  UNL1        0.1675
      6 C         141.8007  140.7508  164.0778 C.ar    1  UNL1        0.0846
      7 C         142.8051  141.6799  164.6925 C.ar    1  UNL1        0.0291
      8 C         142.7120  142.0280  166.1487 C.ar    1  UNL1        0.0605
      9 CL        143.7163  142.9571  166.7634 Cl      1  UNL1       -0.0822
     10 C         141.6145  141.4468  166.9900 C.ar    1  UNL1        0.0297
     11 C         141.5214  141.7948  168.4460 C.ar    1  UNL1        0.0083
     12 C         140.4239  141.2137  169.2874 C.ar    1  UNL1        0.0702
     13 C         139.4196  140.2845  168.6726 C.ar    1  UNL1        0.2620
     14 O         138.3221  139.7034  169.5139 O.2     1  UNL1       -0.2669
     15 N         139.5127  139.9365  167.2165 N.ar    1  UNL1       -0.2909
     16 C         140.6101  140.5176  166.3751 C.ar    1  UNL1        0.0986
     17 N         141.8939  140.4028  162.6217 N.pl3   1  UNL1       -0.3050
     18 C         141.5885  141.3200  161.4746 C.3     1  UNL1        0.0910
     19 C         141.8146  140.5607  160.2010 C.3     1  UNL1        0.0244
     20 C         142.2597  139.1741  160.5608 C.3     1  UNL1        0.0344
     21 C         142.3087  139.0766  162.0569 C.3     1  UNL1        0.0921
     22 C         142.5967  138.0776  159.5943 C.3     1  UNL1        0.0406
     23 N         143.1862  137.0711  160.5374 N.3     1  UNL1       -0.3231
     24 C         142.7290  137.3307  158.3003 C.3     1  UNL1        0.0156
     25 C         142.1243  138.7033  158.3155 C.3     1  UNL1        0.0156
     26 H         143.1671  137.4430  161.4870 H       1  UNL1        0.1188
     27 H         144.1505  136.8765  160.2678 H       1  UNL1        0.1188
     28 C         140.3308  141.5617  170.7435 C.2     1  UNL1        0.0775
     29 O         140.7768  140.5741  171.7807 O.co2   1  UNL1       -0.5444
     30 O         139.7917  142.8973  171.1624 O.co2   1  UNL1       -0.5444
@<TRIPOS>UNITY_ATOM_ATTR
29 1
charge -1
@<TRIPOS>BOND
     1     2     1    1
     2     2     3    1
     3     3     4    1
     4     4     5    1
     5     5     6   ar
     6     6    17    1
     7    17    18    1
     8    18    19    1
     9    19    20    1
    10    20    22    1
    11    22    23    1
    12    22    24    1
    13    24    25    1
    14    20    21    1
    15     6     7   ar
    16     7     8   ar
    17     8     9    1
    18     8    10   ar
    19    10    11   ar
    20    11    12   ar
    21    12    28    1
    22    28    29   ar
    23    28    30   ar
    24    12    13   ar
    25    13    14    2
    26    13    15   ar
    27    15    16   ar
    28    15     2    1
    29    16     5   ar
    30    21    17    1
    31    16    10   ar
    32    25    22    1
    33    23    26    1
    34    23    27    1
@<TRIPOS>MOLECULE
*****
 30 34 0 0 0
SMALL
GASTEIGER

@<TRIPOS>ATOM
      1 C         143.8872  142.9866  166.4494 C.3     1  UNL1        0.0285
      2 C         142.7778  142.1225  165.9272 C.3     1  UNL1        0.1321
      3 C         142.6819  141.8309  164.4590 C.3     1  UNL1        0.2279
      4 O         141.5725  140.9668  163.9368 O.3     1  UNL1       -0.4707
      5 C         140.5590  140.3943  164.8829 C.ar    1  UNL1        0.1675
      6 C         139.4497  139.5302  164.3608 C.ar    1  UNL1        0.0846
      7 C         138.4362  138.9577  165.3069 C.ar    1  UNL1        0.0291
      8 C         138.5321  139.2492  166.7752 C.ar    1  UNL1        0.0605
      9 CL        137.5187  138.6767  167.7213 Cl      1  UNL1       -0.0822
     10 C         139.6415  140.1133  167.2973 C.ar    1  UNL1        0.0297
     11 C         139.7374  140.4049  168.7655 C.ar    1  UNL1        0.0083
     12 C         140.8468  141.2690  169.2877 C.ar    1  UNL1        0.0702
     13 C         141.8602  141.8415  168.3416 C.ar    1  UNL1        0.2620
     14 O         142.9696  142.7056  168.8637 O.2     1  UNL1       -0.2669
     15 N         141.7644  141.5499  166.8733 N.ar    1  UNL1       -0.2909
     16 C         140.6550  140.6859  166.3511 C.ar    1  UNL1        0.0986
     17 N         139.3537  139.2386  162.8926 N.pl3   1  UNL1       -0.3050
     18 C         139.5439  137.8987  162.2454 C.3     1  UNL1        0.0910
     19 C         139.3585  138.0676  160.7666 C.3     1  UNL1        0.0244
     20 C         139.0538  139.5120  160.4996 C.3     1  UNL1        0.0344
     21 C         139.0508  140.2356  161.8136 C.3     1  UNL1        0.0921
     22 C         138.7971  140.1249  159.1549 C.3     1  UNL1        0.0406
     23 N         139.1617  138.9709  158.2687 N.3     1  UNL1       -0.3231
     24 C         138.4137  141.1386  158.1179 C.3     1  UNL1        0.0156
     25 C         138.3433  141.4918  159.5740 C.3     1  UNL1        0.0156
     26 H         139.4526  138.1798  158.8430 H       1  UNL1        0.1188
     27 H         139.9276  139.2439  157.6528 H       1  UNL1        0.1188
     28 C         140.9427  141.5606  170.7560 C.2     1  UNL1        0.0775
     29 O         140.0200  142.5631  171.3834 O.co2   1  UNL1       -0.5444
     30 O         141.9613  140.8496  171.5968 O.co2   1  UNL1       -0.5444
@<TRIPOS>UNITY_ATOM_ATTR
29 1
charge -1
@<TRIPOS>BOND
     1     2     1    1
     2     2     3    1
     3     3     4    1
     4     4     5    1
     5     5     6   ar
     6     6    17    1
     7    17    18    1
     8    18    19    1
     9    19    20    1
    10    20    22    1
    11    22    23    1
    12    22    24    1
    13    24    25    1
    14    20    21    1
    15     6     7   ar
    16     7     8   ar
    17     8     9    1
    18     8    10   ar
    19    10    11   ar
    20    11    12   ar
    21    12    28    1
    22    28    29   ar
    23    28    30   ar
    24    12    13   ar
    25    13    14    2
    26    13    15   ar
    27    15    16   ar
    28    15     2    1
    29    16     5   ar
    30    21    17    1
    31    16    10   ar
    32    25    22    1
    33    23    26    1
    34    23    27    1
@<TRIPOS>MOLECULE
*****
 30 34 0 0 0
SMALL
GASTEIGER

@<TRIPOS>ATOM
      1 C         138.1286  139.8364  165.6740 C.3     1  UNL1        0.0285
      2 C         139.0350  140.8399  165.0248 C.3     1  UNL1        0.1321
      3 C         138.6232  141.5051  163.7450 C.3     1  UNL1        0.2279
      4 O         139.5296  142.5085  163.0958 O.3     1  UNL1       -0.4707
      5 C         140.8479  142.8467  163.7264 C.ar    1  UNL1        0.1675
      6 C         141.7543  143.8502  163.0771 C.ar    1  UNL1        0.0846
      7 C         143.0727  144.1884  163.7077 C.ar    1  UNL1        0.0291
      8 C         143.4846  143.5231  164.9875 C.ar    1  UNL1        0.0605
      9 CL        144.8029  143.8614  165.6180 Cl      1  UNL1       -0.0822
     10 C         142.5782  142.5197  165.6367 C.ar    1  UNL1        0.0297
     11 C         142.9900  141.8545  166.9164 C.ar    1  UNL1        0.0083
     12 C         142.0836  140.8510  167.5656 C.ar    1  UNL1        0.0702
     13 C         140.7653  140.5128  166.9351 C.ar    1  UNL1        0.2620
     14 O         139.8588  139.5094  167.5843 O.2     1  UNL1       -0.2669
     15 N         140.3533  141.1781  165.6553 N.ar    1  UNL1       -0.2909
     16 C         141.2598  142.1815  165.0061 C.ar    1  UNL1        0.0986
     17 N         141.3425  144.5154  161.7974 N.pl3   1  UNL1       -0.3050
     18 C         140.2169  145.4936  161.6347 C.3     1  UNL1        0.0910
     19 C         140.1626  145.9021  160.1924 C.3     1  UNL1        0.0244
     20 C         141.2546  145.1763  159.4636 C.3     1  UNL1        0.0344
     21 C         141.9838  144.3193  160.4556 C.3     1  UNL1        0.0921
     22 C         141.5631  145.2879  158.0000 C.3     1  UNL1        0.0406
     23 N         142.9047  144.6178  157.9648 N.3     1  UNL1       -0.3231
     24 C         141.4059  145.6322  156.5486 C.3     1  UNL1        0.0156
     25 C         140.3288  145.9968  157.5269 C.3     1  UNL1        0.0156
     26 H         143.1595  144.3174  158.9057 H       1  UNL1        0.1188
     27 H         143.6035  145.2740  157.6164 H       1  UNL1        0.1188
     28 C         142.4955  140.1858  168.8455 C.2     1  UNL1        0.0775
     29 O         143.0645  138.7981  168.8201 O.co2   1  UNL1       -0.5444
     30 O         142.3385  140.9083  170.1506 O.co2   1  UNL1       -0.5444
@<TRIPOS>UNITY_ATOM_ATTR
29 1
charge -1
@<TRIPOS>BOND
     1     2     1    1
     2     2     3    1
     3     3     4    1
     4     4     5    1
     5     5     6   ar
     6     6    17    1
     7    17    18    1
     8    18    19    1
     9    19    20    1
    10    20    22    1
    11    22    23    1
    12    22    24    1
    13    24    25    1
    14    20    21    1
    15     6     7   ar
    16     7     8   ar
    17     8     9    1
    18     8    10   ar
    19    10    11   ar
    20    11    12   ar
    21    12    28    1
    22    28    29   ar
    23    28    30   ar
    24    12    13   ar
    25    13    14    2
    26    13    15   ar
    27    15    16   ar
    28    15     2    1
    29    16     5   ar
    30    21    17    1
    31    16    10   ar
    32    25    22    1
    33    23    26    1
    34    23    27    1
@<TRIPOS>MOLECULE
*****
 30 34 0 0 0
SMALL
GASTEIGER

@<TRIPOS>ATOM
      1 C         143.7692  142.9113  166.9539 C.3     1  UNL1        0.0285
      2 C         142.7877  141.9794  166.3073 C.3     1  UNL1        0.1321
      3 C         142.9539  141.5969  164.8664 C.3     1  UNL1        0.2279
      4 O         141.9724  140.6650  164.2198 O.3     1  UNL1       -0.4707
      5 C         140.8246  140.1156  165.0139 C.ar    1  UNL1        0.1675
      6 C         139.8431  139.1837  164.3672 C.ar    1  UNL1        0.0846
      7 C         138.6953  138.6344  165.1613 C.ar    1  UNL1        0.0291
      8 C         138.5289  139.0169  166.6022 C.ar    1  UNL1        0.0605
      9 CL        137.3811  138.4675  167.3964 Cl      1  UNL1       -0.0822
     10 C         139.5105  139.9488  167.2489 C.ar    1  UNL1        0.0297
     11 C         139.3442  140.3313  168.6897 C.ar    1  UNL1        0.0083
     12 C         140.3257  141.2632  169.3364 C.ar    1  UNL1        0.0702
     13 C         141.4735  141.8125  168.5423 C.ar    1  UNL1        0.2620
     14 O         142.4551  142.7444  169.1890 O.2     1  UNL1       -0.2669
     15 N         141.6399  141.4300  167.1014 N.ar    1  UNL1       -0.2909
     16 C         140.6583  140.4981  166.4547 C.ar    1  UNL1        0.0986
     17 N         140.0093  138.8012  162.9264 N.pl3   1  UNL1       -0.3050
     18 C         138.9012  138.5659  161.9430 C.3     1  UNL1        0.0910
     19 C         139.5199  138.2061  160.6248 C.3     1  UNL1        0.0244
     20 C         141.0104  138.2190  160.7933 C.3     1  UNL1        0.0344
     21 C         141.3129  138.5869  162.2158 C.3     1  UNL1        0.0921
     22 C         142.0210  137.9172  159.7267 C.3     1  UNL1        0.0406
     23 N         143.0808  137.2509  160.5532 N.3     1  UNL1       -0.3231
     24 C         142.6635  137.8467  158.3732 C.3     1  UNL1        0.0156
     25 C         141.3121  138.4786  158.5300 C.3     1  UNL1        0.0156
     26 H         142.7830  137.2211  161.5282 H       1  UNL1        0.1188
     27 H         143.9509  137.7781  160.4794 H       1  UNL1        0.1188
     28 C         140.1594  141.6457  170.7773 C.2     1  UNL1        0.0775
     29 O         140.6614  140.7345  171.8579 O.co2   1  UNL1       -0.5444
     30 O         139.4910  142.9393  171.1375 O.co2   1  UNL1       -0.5444
@<TRIPOS>UNITY_ATOM_ATTR
29 1
charge -1
@<TRIPOS>BOND
     1     2     1    1
     2     2     3    1
     3     3     4    1
     4     4     5    1
     5     5     6   ar
     6     6    17    1
     7    17    18    1
     8    18    19    1
     9    19    20    1
    10    20    22    1
    11    22    23    1
    12    22    24    1
    13    24    25    1
    14    20    21    1
    15     6     7   ar
    16     7     8   ar
    17     8     9    1
    18     8    10   ar
    19    10    11   ar
    20    11    12   ar
    21    12    28    1
    22    28    29   ar
    23    28    30   ar
    24    12    13   ar
    25    13    14    2
    26    13    15   ar
    27    15    16   ar
    28    15     2    1
    29    16     5   ar
    30    21    17    1
    31    16    10   ar
    32    25    22    1
    33    23    26    1
    34    23    27    1
@<TRIPOS>MOLECULE
*****
 30 34 0 0 0
SMALL
GASTEIGER

@<TRIPOS>ATOM
      1 C         137.7418  138.3709  167.2384 C.3     1  UNL1        0.0285
      2 C         138.9338  138.8599  166.4703 C.3     1  UNL1        0.1321
      3 C         139.2050  138.3343  165.0919 C.3     1  UNL1        0.2279
      4 O         140.3970  138.8233  164.3238 O.3     1  UNL1       -0.4707
      5 C         141.3178  139.8380  164.9341 C.ar    1  UNL1        0.1675
      6 C         142.5098  140.3271  164.1660 C.ar    1  UNL1        0.0846
      7 C         143.4305  141.3418  164.7763 C.ar    1  UNL1        0.0291
      8 C         143.1593  141.8675  166.1548 C.ar    1  UNL1        0.0605
      9 CL        144.0800  142.8822  166.7651 Cl      1  UNL1       -0.0822
     10 C         141.9673  141.3785  166.9229 C.ar    1  UNL1        0.0297
     11 C         141.6960  141.9041  168.3013 C.ar    1  UNL1        0.0083
     12 C         140.5040  141.4151  169.0694 C.ar    1  UNL1        0.0702
     13 C         139.5833  140.4004  168.4591 C.ar    1  UNL1        0.2620
     14 O         138.3913  139.9113  169.2272 O.2     1  UNL1       -0.2669
     15 N         139.8545  139.8746  167.0806 N.ar    1  UNL1       -0.2909
     16 C         141.0465  140.3637  166.3125 C.ar    1  UNL1        0.0986
     17 N         142.7810  139.8014  162.7876 N.pl3   1  UNL1       -0.3050
     18 C         143.7259  138.6901  162.4378 C.3     1  UNL1        0.0910
     19 C         143.6839  138.4966  160.9510 C.3     1  UNL1        0.0244
     20 C         142.7131  139.4883  160.3817 C.3     1  UNL1        0.0344
     21 C         142.1550  140.2947  161.5168 C.3     1  UNL1        0.0921
     22 C         142.3619  139.6459  158.9319 C.3     1  UNL1        0.0406
     23 N         143.7233  139.5070  158.3176 N.3     1  UNL1       -0.3231
     24 C         141.5380  139.8517  157.6955 C.3     1  UNL1        0.0156
     25 C         140.8786  139.8395  159.0428 C.3     1  UNL1        0.0156
     26 H         144.4144  139.3572  159.0527 H       1  UNL1        0.1188
     27 H         143.9527  140.3575  157.8034 H       1  UNL1        0.1188
     28 C         140.2328  141.9408  170.4478 C.2     1  UNL1        0.0775
     29 O         139.6005  143.2893  170.6253 O.co2   1  UNL1       -0.5444
     30 O         140.5940  141.1179  171.6489 O.co2   1  UNL1       -0.5444
@<TRIPOS>UNITY_ATOM_ATTR
29 1
charge -1
@<TRIPOS>BOND
     1     2     1    1
     2     2     3    1
     3     3     4    1
     4     4     5    1
     5     5     6   ar
     6     6    17    1
     7    17    18    1
     8    18    19    1
     9    19    20    1
    10    20    22    1
    11    22    23    1
    12    22    24    1
    13    24    25    1
    14    20    21    1
    15     6     7   ar
    16     7     8   ar
    17     8     9    1
    18     8    10   ar
    19    10    11   ar
    20    11    12   ar
    21    12    28    1
    22    28    29   ar
    23    28    30   ar
    24    12    13   ar
    25    13    14    2
    26    13    15   ar
    27    15    16   ar
    28    15     2    1
    29    16     5   ar
    30    21    17    1
    31    16    10   ar
    32    25    22    1
    33    23    26    1
    34    23    27    1
@<TRIPOS>MOLECULE
*****
 30 34 0 0 0
SMALL
GASTEIGER

@<TRIPOS>ATOM
      1 C         137.9819  144.4195  162.9029 C.3     1  UNL1        0.0285
      2 C         139.1786  143.8976  163.6416 C.3     1  UNL1        0.1321
      3 C         139.0879  143.6153  165.1120 C.3     1  UNL1        0.2279
      4 O         140.2846  143.0934  165.8507 O.3     1  UNL1       -0.4707
      5 C         141.5719  142.8537  165.1190 C.ar    1  UNL1        0.1675
      6 C         142.7685  142.3318  165.8577 C.ar    1  UNL1        0.0846
      7 C         144.0558  142.0922  165.1260 C.ar    1  UNL1        0.0291
      8 C         144.1465  142.3745  163.6555 C.ar    1  UNL1        0.0605
      9 CL        145.4338  142.1348  162.9238 Cl      1  UNL1       -0.0822
     10 C         142.9498  142.8964  162.9168 C.ar    1  UNL1        0.0297
     11 C         143.0405  143.1787  161.4465 C.ar    1  UNL1        0.0083
     12 C         141.8439  143.7006  160.7078 C.ar    1  UNL1        0.0702
     13 C         140.5566  143.9402  161.4395 C.ar    1  UNL1        0.2620
     14 O         139.3599  144.4622  160.7008 O.2     1  UNL1       -0.2669
     15 N         140.4659  143.6579  162.9099 N.ar    1  UNL1       -0.2909
     16 C         141.6625  143.1360  163.6486 C.ar    1  UNL1        0.0986
     17 N         142.6778  142.0495  167.3280 N.pl3   1  UNL1       -0.3050
     18 C         143.6348  142.5297  168.3787 C.3     1  UNL1        0.0910
     19 C         143.1627  142.0144  169.7060 C.3     1  UNL1        0.0244
     20 C         141.9140  141.2158  169.4757 C.3     1  UNL1        0.0344
     21 C         141.6143  141.2375  168.0060 C.3     1  UNL1        0.0921
     22 C         141.1067  140.5180  170.5299 C.3     1  UNL1        0.0406
     23 N         142.0389  140.6449  171.6983 N.3     1  UNL1       -0.3231
     24 C         139.9758  139.7762  171.1784 C.3     1  UNL1        0.0156
     25 C         139.8943  140.1489  169.7277 C.3     1  UNL1        0.0156
     26 H         142.8811  141.1422  171.4089 H       1  UNL1        0.1188
     27 H         142.2914  139.7155  172.0343 H       1  UNL1        0.1188
     28 C         141.9346  143.9829  159.2373 C.2     1  UNL1        0.0775
     29 O         142.1270  145.3898  158.7542 O.co2   1  UNL1       -0.5444
     30 O         141.8328  142.8582  158.2501 O.co2   1  UNL1       -0.5444
@<TRIPOS>UNITY_ATOM_ATTR
29 1
charge -1
@<TRIPOS>BOND
     1     2     1    1
     2     2     3    1
     3     3     4    1
     4     4     5    1
     5     5     6   ar
     6     6    17    1
     7    17    18    1
     8    18    19    1
     9    19    20    1
    10    20    22    1
    11    22    23    1
    12    22    24    1
    13    24    25    1
    14    20    21    1
    15     6     7   ar
    16     7     8   ar
    17     8     9    1
    18     8    10   ar
    19    10    11   ar
    20    11    12   ar
    21    12    28    1
    22    28    29   ar
    23    28    30   ar
    24    12    13   ar
    25    13    14    2
    26    13    15   ar
    27    15    16   ar
    28    15     2    1
    29    16     5   ar
    30    21    17    1
    31    16    10   ar
    32    25    22    1
    33    23    26    1
    34    23    27    1
@<TRIPOS>MOLECULE
*****
 30 34 0 0 0
SMALL
GASTEIGER

@<TRIPOS>ATOM
      1 C         143.3172  139.0962  165.7019 C.3     1  UNL1        0.0285
      2 C         142.5504  140.1864  165.0138 C.3     1  UNL1        0.1321
      3 C         142.6221  140.3274  163.5222 C.3     1  UNL1        0.2279
      4 O         141.8553  141.4176  162.8341 O.3     1  UNL1       -0.4707
      5 C         141.0167  142.3668  163.6376 C.ar    1  UNL1        0.1675
      6 C         140.2499  143.4570  162.9495 C.ar    1  UNL1        0.0846
      7 C         139.4113  144.4063  163.7531 C.ar    1  UNL1        0.0291
      8 C         139.3395  144.2653  165.2448 C.ar    1  UNL1        0.0605
      9 CL        138.5009  145.2146  166.0483 Cl      1  UNL1       -0.0822
     10 C         140.1063  143.1751  165.9328 C.ar    1  UNL1        0.0297
     11 C         140.0346  143.0342  167.4244 C.ar    1  UNL1        0.0083
     12 C         140.8014  141.9440  168.1125 C.ar    1  UNL1        0.0702
     13 C         141.6400  140.9947  167.3090 C.ar    1  UNL1        0.2620
     14 O         142.4068  139.9046  167.9971 O.2     1  UNL1       -0.2669
     15 N         141.7118  141.1357  165.8173 N.ar    1  UNL1       -0.2909
     16 C         140.9450  142.2259  165.1292 C.ar    1  UNL1        0.0986
     17 N         140.3217  143.5980  161.4579 N.pl3   1  UNL1       -0.3050
     18 C         139.4204  142.9265  160.4644 C.3     1  UNL1        0.0910
     19 C         139.8490  143.3486  159.0904 C.3     1  UNL1        0.0244
     20 C         141.0151  144.2811  159.2345 C.3     1  UNL1        0.0344
     21 C         141.3073  144.4352  160.6978 C.3     1  UNL1        0.0921
     22 C         141.7586  144.9432  158.1126 C.3     1  UNL1        0.0406
     23 N         143.0724  144.2260  158.2117 N.3     1  UNL1       -0.3231
     24 C         142.0459  145.8542  156.9562 C.3     1  UNL1        0.0156
     25 C         140.7031  145.8902  157.6238 C.3     1  UNL1        0.0156
     26 H         143.0346  143.5514  158.9758 H       1  UNL1        0.1188
     27 H         143.8156  144.9012  158.3907 H       1  UNL1        0.1188
     28 C         140.7296  141.8031  169.6042 C.2     1  UNL1        0.0775
     29 O         139.4973  141.2374  170.2457 O.co2   1  UNL1       -0.5444
     30 O         141.8901  142.2278  170.4544 O.co2   1  UNL1       -0.5444
@<TRIPOS>UNITY_ATOM_ATTR
29 1
charge -1
@<TRIPOS>BOND
     1     2     1    1
     2     2     3    1
     3     3     4    1
     4     4     5    1
     5     5     6   ar
     6     6    17    1
     7    17    18    1
     8    18    19    1
     9    19    20    1
    10    20    22    1
    11    22    23    1
    12    22    24    1
    13    24    25    1
    14    20    21    1
    15     6     7   ar
    16     7     8   ar
    17     8     9    1
    18     8    10   ar
    19    10    11   ar
    20    11    12   ar
    21    12    28    1
    22    28    29   ar
    23    28    30   ar
    24    12    13   ar
    25    13    14    2
    26    13    15   ar
    27    15    16   ar
    28    15     2    1
    29    16     5   ar
    30    21    17    1
    31    16    10   ar
    32    25    22    1
    33    23    26    1
    34    23    27    1
@<TRIPOS>MOLECULE
*****
 30 34 0 0 0
SMALL
GASTEIGER

@<TRIPOS>ATOM
      1 C         144.8850  142.0580  161.7684 C.3     1  UNL1        0.0285
      2 C         143.6665  142.0956  162.6423 C.3     1  UNL1        0.1321
      3 C         143.6839  141.4232  163.9829 C.3     1  UNL1        0.2279
      4 O         142.4653  141.4608  164.8568 O.3     1  UNL1       -0.4707
      5 C         141.2293  142.1708  164.3900 C.ar    1  UNL1        0.1675
      6 C         140.0107  142.2084  165.2639 C.ar    1  UNL1        0.0846
      7 C         138.7747  142.9184  164.7971 C.ar    1  UNL1        0.0291
      8 C         138.7571  143.5909  163.4563 C.ar    1  UNL1        0.0605
      9 CL        137.5211  144.3010  162.9895 Cl      1  UNL1       -0.0822
     10 C         139.9757  143.5533  162.5824 C.ar    1  UNL1        0.0297
     11 C         139.9582  144.2258  161.2418 C.ar    1  UNL1        0.0083
     12 C         141.1768  144.1882  160.3679 C.ar    1  UNL1        0.0702
     13 C         142.4129  143.4781  160.8347 C.ar    1  UNL1        0.2620
     14 O         143.6315  143.4405  159.9608 O.2     1  UNL1       -0.2669
     15 N         142.4304  142.8056  162.1755 N.ar    1  UNL1       -0.2909
     16 C         141.2118  142.8432  163.0493 C.ar    1  UNL1        0.0986
     17 N         140.0282  141.5360  166.6046 N.pl3   1  UNL1       -0.3050
     18 C         139.4314  140.1983  166.9279 C.3     1  UNL1        0.0910
     19 C         139.6798  139.9187  168.3805 C.3     1  UNL1        0.0244
     20 C         140.4303  141.0835  168.9550 C.3     1  UNL1        0.0344
     21 C         140.6455  142.0831  167.8574 C.3     1  UNL1        0.0921
     22 C         140.8855  141.2242  170.3773 C.3     1  UNL1        0.0406
     23 N         140.1664  140.0627  170.9970 N.3     1  UNL1       -0.3231
     24 C         141.5903  141.7681  171.5844 C.3     1  UNL1        0.0156
     25 C         141.7626  142.4344  170.2516 C.3     1  UNL1        0.0156
     26 H         139.6258  139.5766  170.2816 H       1  UNL1        0.1188
     27 H         139.5385  140.4013  171.7261 H       1  UNL1        0.1188
     28 C         141.1593  144.8607  159.0271 C.2     1  UNL1        0.0775
     29 O         142.1569  145.9363  158.7145 O.co2   1  UNL1       -0.5444
     30 O         140.1441  144.4575  157.9991 O.co2   1  UNL1       -0.5444
@<TRIPOS>UNITY_ATOM_ATTR
29 1
charge -1
@<TRIPOS>BOND
     1     2     1    1
     2     2     3    1
     3     3     4    1
     4     4     5    1
     5     5     6   ar
     6     6    17    1
     7    17    18    1
     8    18    19    1
     9    19    20    1
    10    20    22    1
    11    22    23    1
    12    22    24    1
    13    24    25    1
    14    20    21    1
    15     6     7   ar
    16     7     8   ar
    17     8     9    1
    18     8    10   ar
    19    10    11   ar
    20    11    12   ar
    21    12    28    1
    22    28    29   ar
    23    28    30   ar
    24    12    13   ar
    25    13    14    2
    26    13    15   ar
    27    15    16   ar
    28    15     2    1
    29    16     5   ar
    30    21    17    1
    31    16    10   ar
    32    25    22    1
    33    23    26    1
    34    23    27    1
@<TRIPOS>MOLECULE
*****
 30 34 0 0 0
SMALL
GASTEIGER

@<TRIPOS>ATOM
      1 C         138.1151  140.9821  160.5788 C.3     1  UNL1        0.0285
      2 C         139.0890  141.2331  161.6918 C.3     1  UNL1        0.1321
      3 C         139.1216  140.3188  162.8804 C.3     1  UNL1        0.2279
      4 O         140.0954  140.5699  163.9933 O.3     1  UNL1       -0.4707
      5 C         141.0366  141.7353  163.9176 C.ar    1  UNL1        0.1675
      6 C         142.0105  141.9864  165.0305 C.ar    1  UNL1        0.0846
      7 C         142.9517  143.1518  164.9549 C.ar    1  UNL1        0.0291
      8 C         142.9191  144.0663  163.7662 C.ar    1  UNL1        0.0605
      9 CL        143.8603  145.2317  163.6906 Cl      1  UNL1       -0.0822
     10 C         141.9453  143.8152  162.6533 C.ar    1  UNL1        0.0297
     11 C         141.9127  144.7296  161.4647 C.ar    1  UNL1        0.0083
     12 C         140.9388  144.4785  160.3518 C.ar    1  UNL1        0.0702
     13 C         139.9976  143.3130  160.4274 C.ar    1  UNL1        0.2620
     14 O         139.0238  143.0620  159.3145 O.2     1  UNL1       -0.2669
     15 N         140.0302  142.3986  161.6161 N.ar    1  UNL1       -0.2909
     16 C         141.0040  142.6497  162.7290 C.ar    1  UNL1        0.0986
     17 N         142.0431  141.0720  166.2191 N.pl3   1  UNL1       -0.3050
     18 C         142.9012  139.8508  166.3688 C.3     1  UNL1        0.0910
     19 C         142.6118  139.2423  167.7090 C.3     1  UNL1        0.0244
     20 C         141.5748  140.0874  168.3876 C.3     1  UNL1        0.0344
     21 C         141.2233  141.2183  167.4668 C.3     1  UNL1        0.0921
     22 C         140.9917  139.8444  169.7481 C.3     1  UNL1        0.0406
     23 N         142.1201  139.0875  170.3837 N.3     1  UNL1       -0.3231
     24 C         140.0168  139.8642  170.8878 C.3     1  UNL1        0.0156
     25 C         139.6609  140.5168  169.5850 C.3     1  UNL1        0.0156
     26 H         142.8830  138.9886  169.7139 H       1  UNL1        0.1188
     27 H         141.7934  138.1634  170.6658 H       1  UNL1        0.1188
     28 C         140.9063  145.3929  159.1631 C.2     1  UNL1        0.0775
     29 O         142.1267  145.5523  158.3058 O.co2   1  UNL1       -0.5444
     30 O         139.6532  146.1480  158.8319 O.co2   1  UNL1       -0.5444
@<TRIPOS>UNITY_ATOM_ATTR
29 1
charge -1
@<TRIPOS>BOND
     1     2     1    1
     2     2     3    1
     3     3     4    1
     4     4     5    1
     5     5     6   ar
     6     6    17    1
     7    17    18    1
     8    18    19    1
     9    19    20    1
    10    20    22    1
    11    22    23    1
    12    22    24    1
    13    24    25    1
    14    20    21    1
    15     6     7   ar
    16     7     8   ar
    17     8     9    1
    18     8    10   ar
    19    10    11   ar
    20    11    12   ar
    21    12    28    1
    22    28    29   ar
    23    28    30   ar
    24    12    13   ar
    25    13    14    2
    26    13    15   ar
    27    15    16   ar
    28    15     2    1
    29    16     5   ar
    30    21    17    1
    31    16    10   ar
    32    25    22    1
    33    23    26    1
    34    23    27    1
