@<TRIPOS>MOLECULE
*****
 32 35 0 0 0
SMALL
GASTEIGER

@<TRIPOS>ATOM
      1 N         139.7074  140.5150  165.0538 N.pl3   1  UNL1       -0.2740
      2 C         139.0348  140.3214  166.3805 C.3     1  UNL1        0.1079
      3 C         140.0682  140.4955  167.4537 C.3     1  UNL1        0.1494
      4 C         139.9845  140.4186  168.9494 C.2     1  UNL1        0.2919
      5 O         138.6733  140.1175  169.6129 O.2     1  UNL1       -0.2563
      6 N         141.2122  140.6430  169.7817 N.am    1  UNL1       -0.1449
      7 C         141.1285  140.5662  171.2775 C.3     1  UNL1        0.2159
      8 C         142.5233  140.9441  169.1183 C.2     1  UNL1        0.3728
      9 N         143.7509  141.1684  169.9506 N.2     1  UNL1       -0.1329
     10 N         142.6069  141.0209  167.6227 N.pl3   1  UNL1       -0.2251
     11 C         141.3794  140.7966  166.7903 C.3     1  UNL1        0.1526
     12 C         141.1564  140.8086  165.3071 C.3     1  UNL1        0.1323
     13 H         143.6961  141.1180  170.9323 H       1  UNL1        0.3058
     14 H         143.4675  141.2185  167.1873 H       1  UNL1        0.2454
     15 C         138.2758  141.5686  161.5054 C.ar    1  UNL1        0.2569
     16 N         138.9362  141.6537  162.8495 N.ar    1  UNL1       -0.1768
     17 C         139.0470  140.4298  163.7097 C.ar    1  UNL1        0.2226
     18 N         138.4972  139.1208  163.2257 N.ar    1  UNL1       -0.2155
     19 C         137.8368  139.0357  161.8816 C.ar    1  UNL1        0.0942
     20 C         137.2871  137.7266  161.3976 C.3     1  UNL1        0.0548
     21 C         137.7261  140.2596  161.0214 C.ar    1  UNL1        0.2065
     22 F         137.0656  140.1744  159.6774 F       1  UNL1       -0.1980
     23 C         138.9781  142.9029  159.3896 C.3     1  UNL1        0.2543
     24 O         138.1651  142.7925  160.6454 O.3     1  UNL1       -0.4545
     25 C         142.6143  141.0871  165.9901 C.ar    1  UNL1        0.0378
     26 C         143.0430  142.5062  165.7610 C.ar    1  UNL1        0.0032
     27 C         144.2780  142.7968  164.9608 C.ar    1  UNL1        0.0296
     28 C         145.0842  141.6682  164.3896 C.ar    1  UNL1        0.1424
     29 F         146.3193  141.9588  163.5893 F       1  UNL1       -0.2041
     30 C         144.6556  140.2491  164.6187 C.ar    1  UNL1        0.0590
     31 C         143.4206  139.9586  165.4189 C.ar    1  UNL1        0.1413
     32 F         142.9920  138.5395  165.6480 F       1  UNL1       -0.2043
@<TRIPOS>BOND
     1    23    24    1
     2    24    15    1
     3    15    16   ar
     4    16    17   ar
     5    17     1    1
     6     1     2    1
     7     3     2    1
     8     3     4    1
     9     4     5    2
    10     4     6   am
    11     6     7    1
    12     6     8    1
    13     8     9    2
    14     8    10    1
    15    10    11    1
    16    11    25    1
    17    25    26   ar
    18    26    27   ar
    19    27    28   ar
    20    28    29    1
    21    28    30   ar
    22    30    31   ar
    23    31    32    1
    24    11    12    1
    25    17    18   ar
    26    18    19   ar
    27    19    20    1
    28    19    21   ar
    29    21    22    1
    30    21    15   ar
    31    12     1    1
    32    11     3    1
    33    31    25   ar
    34     9    13    1
    35    10    14    1
@<TRIPOS>MOLECULE
*****
 32 35 0 0 0
SMALL
GASTEIGER

@<TRIPOS>ATOM
      1 N         140.1286  140.1705  163.4657 N.pl3   1  UNL1       -0.2740
      2 C         139.4230  139.4734  164.5910 C.3     1  UNL1        0.1079
      3 C         139.7175  140.2219  165.8571 C.3     1  UNL1        0.1494
      4 C         139.2922  139.9973  167.2779 C.2     1  UNL1        0.2919
      5 O         138.4046  138.8377  167.6207 O.2     1  UNL1       -0.2563
      6 N         139.7544  140.9325  168.3558 N.am    1  UNL1       -0.1449
      7 C         139.3290  140.7079  169.7767 C.3     1  UNL1        0.2159
      8 C         140.6419  142.0920  168.0130 C.2     1  UNL1        0.3728
      9 N         141.1041  143.0272  169.0910 N.2     1  UNL1       -0.1329
     10 N         141.0672  142.3166  166.5923 N.pl3   1  UNL1       -0.2251
     11 C         140.6051  141.3816  165.5143 C.3     1  UNL1        0.1526
     12 C         140.8591  141.3498  164.0363 C.3     1  UNL1        0.1323
     13 H         140.8250  142.8798  170.0235 H       1  UNL1        0.3058
     14 H         141.6498  143.0778  166.3673 H       1  UNL1        0.2454
     15 C         138.8764  139.6302  159.7387 C.ar    1  UNL1        0.2569
     16 N         138.8977  140.0404  161.1814 N.ar    1  UNL1       -0.1768
     17 C         140.1073  139.7603  162.0230 C.ar    1  UNL1        0.2226
     18 N         141.2957  139.0701  161.4220 N.ar    1  UNL1       -0.2155
     19 C         141.2744  138.6599  159.9792 C.ar    1  UNL1        0.0942
     20 C         142.4627  137.9696  159.3782 C.3     1  UNL1        0.0548
     21 C         140.0647  138.9400  159.1376 C.ar    1  UNL1        0.2065
     22 F         140.0435  138.5298  157.6950 F       1  UNL1       -0.1980
     23 C         137.7222  140.9641  157.8311 C.3     1  UNL1        0.2543
     24 O         137.6667  139.9103  158.8972 O.3     1  UNL1       -0.4545
     25 C         141.4855  142.4920  165.0226 C.ar    1  UNL1        0.0378
     26 C         140.8744  143.7586  164.5007 C.ar    1  UNL1        0.0032
     27 C         141.7548  144.8690  164.0090 C.ar    1  UNL1        0.0296
     28 C         143.2464  144.7128  164.0391 C.ar    1  UNL1        0.1424
     29 F         144.1269  145.8232  163.5473 F       1  UNL1       -0.2041
     30 C         143.8575  143.4462  164.5609 C.ar    1  UNL1        0.0590
     31 C         142.9770  142.3358  165.0527 C.ar    1  UNL1        0.1413
     32 F         143.5881  141.0692  165.5745 F       1  UNL1       -0.2043
@<TRIPOS>BOND
     1    23    24    1
     2    24    15    1
     3    15    16   ar
     4    16    17   ar
     5    17     1    1
     6     1     2    1
     7     3     2    1
     8     3     4    1
     9     4     5    2
    10     4     6   am
    11     6     7    1
    12     6     8    1
    13     8     9    2
    14     8    10    1
    15    10    11    1
    16    11    25    1
    17    25    26   ar
    18    26    27   ar
    19    27    28   ar
    20    28    29    1
    21    28    30   ar
    22    30    31   ar
    23    31    32    1
    24    11    12    1
    25    17    18   ar
    26    18    19   ar
    27    19    20    1
    28    19    21   ar
    29    21    22    1
    30    21    15   ar
    31    12     1    1
    32    11     3    1
    33    31    25   ar
    34     9    13    1
    35    10    14    1
@<TRIPOS>MOLECULE
*****
 32 35 0 0 0
SMALL
GASTEIGER

@<TRIPOS>ATOM
      1 N         142.5040  141.8537  165.9067 N.pl3   1  UNL1       -0.2740
      2 C         143.8337  141.5998  165.2605 C.3     1  UNL1        0.1079
      3 C         143.7615  142.0884  163.8442 C.3     1  UNL1        0.1494
      4 C         144.7696  142.0989  162.7335 C.2     1  UNL1        0.2919
      5 O         146.1439  141.5430  162.9626 O.2     1  UNL1       -0.2563
      6 N         144.4034  142.6653  161.3937 N.am    1  UNL1       -0.1449
      7 C         145.4116  142.6758  160.2829 C.3     1  UNL1        0.2159
      8 C         143.0293  143.2211  161.1645 C.2     1  UNL1        0.3728
      9 N         142.6631  143.7876  159.8247 N.2     1  UNL1       -0.1329
     10 N         142.0211  143.2106  162.2752 N.pl3   1  UNL1       -0.2251
     11 C         142.3873  142.6442  163.6150 C.3     1  UNL1        0.1526
     12 C         141.6101  142.4992  164.8898 C.3     1  UNL1        0.1323
     13 H         143.3247  143.7945  159.0957 H       1  UNL1        0.3058
     14 H         141.1192  143.5755  162.1248 H       1  UNL1        0.2454
     15 C         140.9154  142.1353  169.5327 C.ar    1  UNL1        0.2569
     16 N         141.2862  142.4683  168.1178 N.ar    1  UNL1       -0.1768
     17 C         142.1333  141.5206  167.3215 C.ar    1  UNL1        0.2226
     18 N         142.6099  140.2399  167.9400 N.ar    1  UNL1       -0.2155
     19 C         142.2391  139.9069  169.3549 C.ar    1  UNL1        0.0942
     20 C         142.7156  138.6261  169.9733 C.3     1  UNL1        0.0548
     21 C         141.3919  140.8545  170.1512 C.ar    1  UNL1        0.2065
     22 F         141.0213  140.5215  171.5660 F       1  UNL1       -0.1980
     23 C         140.2425  144.5638  170.1648 C.3     1  UNL1        0.2543
     24 O         140.0683  143.0831  170.3289 O.3     1  UNL1       -0.4545
     25 C         140.9818  143.1622  163.5350 C.ar    1  UNL1        0.0378
     26 C         139.8571  142.2300  163.1944 C.ar    1  UNL1        0.0032
     27 C         138.4517  142.7480  163.1144 C.ar    1  UNL1        0.0296
     28 C         138.1710  144.1983  163.3750 C.ar    1  UNL1        0.1424
     29 F         136.7655  144.7163  163.2950 F       1  UNL1       -0.2041
     30 C         139.2957  145.1305  163.7156 C.ar    1  UNL1        0.0590
     31 C         140.7011  144.6125  163.7956 C.ar    1  UNL1        0.1413
     32 F         141.8258  145.5448  164.1362 F       1  UNL1       -0.2043
@<TRIPOS>BOND
     1    23    24    1
     2    24    15    1
     3    15    16   ar
     4    16    17   ar
     5    17     1    1
     6     1     2    1
     7     3     2    1
     8     3     4    1
     9     4     5    2
    10     4     6   am
    11     6     7    1
    12     6     8    1
    13     8     9    2
    14     8    10    1
    15    10    11    1
    16    11    25    1
    17    25    26   ar
    18    26    27   ar
    19    27    28   ar
    20    28    29    1
    21    28    30   ar
    22    30    31   ar
    23    31    32    1
    24    11    12    1
    25    17    18   ar
    26    18    19   ar
    27    19    20    1
    28    19    21   ar
    29    21    22    1
    30    21    15   ar
    31    12     1    1
    32    11     3    1
    33    31    25   ar
    34     9    13    1
    35    10    14    1
@<TRIPOS>MOLECULE
*****
 32 35 0 0 0
SMALL
GASTEIGER

@<TRIPOS>ATOM
      1 N         140.9709  140.4387  165.8650 N.pl3   1  UNL1       -0.2740
      2 C         140.1980  139.3334  165.2085 C.3     1  UNL1        0.1079
      3 C         140.2446  139.5529  163.7254 C.3     1  UNL1        0.1494
      4 C         139.6606  138.7831  162.5780 C.2     1  UNL1        0.2919
      5 O         138.8588  137.5423  162.8380 O.2     1  UNL1       -0.2563
      6 N         139.8783  139.2543  161.1706 N.am    1  UNL1       -0.1449
      7 C         139.2943  138.4845  160.0232 C.3     1  UNL1        0.2159
      8 C         140.6799  140.4950  160.9106 C.2     1  UNL1        0.3728
      9 N         140.8977  140.9662  159.5032 N.2     1  UNL1       -0.1329
     10 N         141.2640  141.2648  162.0579 N.pl3   1  UNL1       -0.2251
     11 C         141.0463  140.7937  163.4653 C.3     1  UNL1        0.1526
     12 C         141.4952  141.3412  164.7877 C.3     1  UNL1        0.1323
     13 H         140.5144  140.4610  158.7501 H       1  UNL1        0.3058
     14 H         141.7901  142.0792  161.8873 H       1  UNL1        0.2454
     15 C         140.3789  140.2553  169.7851 C.ar    1  UNL1        0.2569
     16 N         140.1675  140.0829  168.3100 N.ar    1  UNL1       -0.1768
     17 C         141.1824  140.6111  167.3400 C.ar    1  UNL1        0.2226
     18 N         142.4088  141.3118  167.8450 N.ar    1  UNL1       -0.2155
     19 C         142.6202  141.4842  169.3200 C.ar    1  UNL1        0.0942
     20 C         143.8466  142.1849  169.8249 C.3     1  UNL1        0.0548
     21 C         141.6053  140.9560  170.2900 C.ar    1  UNL1        0.2065
     22 F         141.8168  141.1285  171.7650 F       1  UNL1       -0.1980
     23 C         137.9128  139.6919  170.3772 C.3     1  UNL1        0.2543
     24 O         139.3640  139.7271  170.7550 O.3     1  UNL1       -0.4545
     25 C         141.8657  142.0458  163.3609 C.ar    1  UNL1        0.0378
     26 C         141.2007  143.3872  163.4526 C.ar    1  UNL1        0.0032
     27 C         142.0201  144.6392  163.3482 C.ar    1  UNL1        0.0296
     28 C         143.5045  144.5499  163.1521 C.ar    1  UNL1        0.1424
     29 F         144.3240  145.8020  163.0476 F       1  UNL1       -0.2041
     30 C         144.1695  143.2085  163.0603 C.ar    1  UNL1        0.0590
     31 C         143.3501  141.9564  163.1647 C.ar    1  UNL1        0.1413
     32 F         144.0151  140.6150  163.0730 F       1  UNL1       -0.2043
@<TRIPOS>BOND
     1    23    24    1
     2    24    15    1
     3    15    16   ar
     4    16    17   ar
     5    17     1    1
     6     1     2    1
     7     3     2    1
     8     3     4    1
     9     4     5    2
    10     4     6   am
    11     6     7    1
    12     6     8    1
    13     8     9    2
    14     8    10    1
    15    10    11    1
    16    11    25    1
    17    25    26   ar
    18    26    27   ar
    19    27    28   ar
    20    28    29    1
    21    28    30   ar
    22    30    31   ar
    23    31    32    1
    24    11    12    1
    25    17    18   ar
    26    18    19   ar
    27    19    20    1
    28    19    21   ar
    29    21    22    1
    30    21    15   ar
    31    12     1    1
    32    11     3    1
    33    31    25   ar
    34     9    13    1
    35    10    14    1
@<TRIPOS>MOLECULE
*****
 32 35 0 0 0
SMALL
GASTEIGER

@<TRIPOS>ATOM
      1 N         140.5052  142.3621  164.5442 N.pl3   1  UNL1       -0.2740
      2 C         139.9124  143.6093  163.9586 C.3     1  UNL1        0.1079
      3 C         140.3012  143.6720  162.5112 C.3     1  UNL1        0.1494
      4 C         140.0043  144.6733  161.4346 C.2     1  UNL1        0.2919
      5 O         139.1711  145.8819  161.7434 O.2     1  UNL1       -0.2563
      6 N         140.5405  144.4661  160.0491 N.am    1  UNL1       -0.1449
      7 C         140.2436  145.4676  158.9724 C.3     1  UNL1        0.2159
      8 C         141.3737  143.2577  159.7403 C.2     1  UNL1        0.3728
      9 N         141.9099  143.0505  158.3547 N.2     1  UNL1       -0.1329
     10 N         141.6706  142.2564  160.8168 N.pl3   1  UNL1       -0.2251
     11 C         141.1344  142.4635  162.2023 C.3     1  UNL1        0.1526
     12 C         141.2605  141.6539  163.4588 C.3     1  UNL1        0.1323
     13 H         141.7150  143.7077  157.6481 H       1  UNL1        0.3058
     14 H         142.2175  141.4632  160.6141 H       1  UNL1        0.2454
     15 C         139.3397  140.2829  167.7174 C.ar    1  UNL1        0.2569
     16 N         139.4779  140.7416  166.2959 N.ar    1  UNL1       -0.1768
     17 C         140.3671  141.9036  165.9657 C.ar    1  UNL1        0.2226
     18 N         141.1182  142.6070  167.0570 N.ar    1  UNL1       -0.2155
     19 C         140.9800  142.1484  168.4785 C.ar    1  UNL1        0.0942
     20 C         141.7311  142.8518  169.5699 C.3     1  UNL1        0.0548
     21 C         140.0908  140.9864  168.8087 C.ar    1  UNL1        0.2065
     22 F         139.9527  140.5278  170.2302 F       1  UNL1       -0.1980
     23 C         137.6769  138.4358  166.9601 C.3     1  UNL1        0.2543
     24 O         138.4505  139.1209  168.0474 O.3     1  UNL1       -0.4545
     25 C         141.9486  141.2137  162.0437 C.ar    1  UNL1        0.0378
     26 C         141.2766  139.9212  161.6861 C.ar    1  UNL1        0.0032
     27 C         142.0908  138.6714  161.5275 C.ar    1  UNL1        0.0296
     28 C         143.5769  138.7141  161.7266 C.ar    1  UNL1        0.1424
     29 F         144.3911  137.4643  161.5680 F       1  UNL1       -0.2041
     30 C         144.2488  140.0067  162.0842 C.ar    1  UNL1        0.0590
     31 C         143.4347  141.2564  162.2428 C.ar    1  UNL1        0.1413
     32 F         144.1066  142.5490  162.6005 F       1  UNL1       -0.2043
@<TRIPOS>BOND
     1    23    24    1
     2    24    15    1
     3    15    16   ar
     4    16    17   ar
     5    17     1    1
     6     1     2    1
     7     3     2    1
     8     3     4    1
     9     4     5    2
    10     4     6   am
    11     6     7    1
    12     6     8    1
    13     8     9    2
    14     8    10    1
    15    10    11    1
    16    11    25    1
    17    25    26   ar
    18    26    27   ar
    19    27    28   ar
    20    28    29    1
    21    28    30   ar
    22    30    31   ar
    23    31    32    1
    24    11    12    1
    25    17    18   ar
    26    18    19   ar
    27    19    20    1
    28    19    21   ar
    29    21    22    1
    30    21    15   ar
    31    12     1    1
    32    11     3    1
    33    31    25   ar
    34     9    13    1
    35    10    14    1
@<TRIPOS>MOLECULE
*****
 32 35 0 0 0
SMALL
GASTEIGER

@<TRIPOS>ATOM
      1 N         142.5084  140.2136  163.6854 N.pl3   1  UNL1       -0.2740
      2 C         143.1470  139.4165  164.7839 C.3     1  UNL1        0.1079
      3 C         142.4284  139.7308  166.0625 C.3     1  UNL1        0.1494
      4 C         142.6200  139.2424  167.4677 C.2     1  UNL1        0.2919
      5 O         143.7027  138.2510  167.7762 O.2     1  UNL1       -0.2563
      6 N         141.7289  139.7453  168.5646 N.am    1  UNL1       -0.1449
      7 C         141.9206  139.2569  169.9699 C.3     1  UNL1        0.2159
      8 C         140.6463  140.7366  168.2563 C.2     1  UNL1        0.3728
      9 N         139.7552  141.2396  169.3532 N.2     1  UNL1       -0.1329
     10 N         140.4547  141.2251  166.8510 N.pl3   1  UNL1       -0.2251
     11 C         141.3457  140.7222  165.7542 C.3     1  UNL1        0.1526
     12 C         141.3952  141.0206  164.2850 C.3     1  UNL1        0.1323
     13 H         139.8810  140.9190  170.2755 H       1  UNL1        0.3058
     14 H         139.7441  141.8757  166.6487 H       1  UNL1        0.2454
     15 C         143.2822  138.9165  160.0153 C.ar    1  UNL1        0.2569
     16 N         142.8785  138.9250  161.4600 N.ar    1  UNL1       -0.1768
     17 C         142.9122  140.2053  162.2407 C.ar    1  UNL1        0.2226
     18 N         143.3497  141.4772  161.5769 N.ar    1  UNL1       -0.2155
     19 C         143.7535  141.4688  160.1323 C.ar    1  UNL1        0.0942
     20 C         144.1910  142.7407  159.4685 C.3     1  UNL1        0.0548
     21 C         143.7198  140.1885  159.3515 C.ar    1  UNL1        0.2065
     22 F         144.1236  140.1801  157.9069 F       1  UNL1       -0.1980
     23 C         142.3998  137.5313  158.0023 C.3     1  UNL1        0.2543
     24 O         143.2485  137.6362  159.2346 O.3     1  UNL1       -0.4545
     25 C         140.3112  141.7072  165.2965 C.ar    1  UNL1        0.0378
     26 C         140.6343  143.1715  165.2598 C.ar    1  UNL1        0.0032
     27 C         139.5997  144.1566  164.8021 C.ar    1  UNL1        0.0296
     28 C         138.2422  143.6772  164.3811 C.ar    1  UNL1        0.1424
     29 F         137.2076  144.6623  163.9234 F       1  UNL1       -0.2041
     30 C         137.9191  142.2129  164.4178 C.ar    1  UNL1        0.0590
     31 C         138.9536  141.2279  164.8755 C.ar    1  UNL1        0.1413
     32 F         138.6306  139.7635  164.9122 F       1  UNL1       -0.2043
@<TRIPOS>BOND
     1    23    24    1
     2    24    15    1
     3    15    16   ar
     4    16    17   ar
     5    17     1    1
     6     1     2    1
     7     3     2    1
     8     3     4    1
     9     4     5    2
    10     4     6   am
    11     6     7    1
    12     6     8    1
    13     8     9    2
    14     8    10    1
    15    10    11    1
    16    11    25    1
    17    25    26   ar
    18    26    27   ar
    19    27    28   ar
    20    28    29    1
    21    28    30   ar
    22    30    31   ar
    23    31    32    1
    24    11    12    1
    25    17    18   ar
    26    18    19   ar
    27    19    20    1
    28    19    21   ar
    29    21    22    1
    30    21    15   ar
    31    12     1    1
    32    11     3    1
    33    31    25   ar
    34     9    13    1
    35    10    14    1
@<TRIPOS>MOLECULE
*****
 32 35 0 0 0
SMALL
GASTEIGER

@<TRIPOS>ATOM
      1 N         140.9535  140.4098  166.1132 N.pl3   1  UNL1       -0.2740
      2 C         140.1918  139.2884  165.4711 C.3     1  UNL1        0.1079
      3 C         140.2367  139.4887  163.9853 C.3     1  UNL1        0.1494
      4 C         139.6607  138.6981  162.8481 C.2     1  UNL1        0.2919
      5 O         138.8712  137.4529  163.1243 O.2     1  UNL1       -0.2563
      6 N         139.8741  139.1527  161.4346 N.am    1  UNL1       -0.1449
      7 C         139.2981  138.3621  160.2974 C.3     1  UNL1        0.2159
      8 C         140.6635  140.3979  161.1584 C.2     1  UNL1        0.3728
      9 N         140.8769  140.8525  159.7449 N.2     1  UNL1       -0.1329
     10 N         141.2395  141.1885  162.2955 N.pl3   1  UNL1       -0.2251
     11 C         141.0261  140.7339  163.7090 C.3     1  UNL1        0.1526
     12 C         141.4691  141.3032  165.0241 C.3     1  UNL1        0.1323
     13 H         140.4989  140.3336  158.9985 H       1  UNL1        0.3058
     14 H         141.7576  142.0057  162.1142 H       1  UNL1        0.2454
     15 C         142.3585  139.9407  169.7951 C.ar    1  UNL1        0.2569
     16 N         142.1491  139.7467  168.3225 N.ar    1  UNL1       -0.1768
     17 C         141.1629  140.6038  167.5858 C.ar    1  UNL1        0.2226
     18 N         140.3860  141.6549  168.3217 N.ar    1  UNL1       -0.2155
     19 C         140.5954  141.8489  169.7943 C.ar    1  UNL1        0.0942
     20 C         139.8185  142.9000  170.5303 C.3     1  UNL1        0.0548
     21 C         141.5817  140.9918  170.5310 C.ar    1  UNL1        0.2065
     22 F         141.7910  141.1858  172.0036 F       1  UNL1       -0.1980
     23 C         143.3194  137.5937  170.3594 C.3     1  UNL1        0.2543
     24 O         143.3448  139.0835  170.5317 O.3     1  UNL1       -0.4545
     25 C         141.8331  141.9925  163.5882 C.ar    1  UNL1        0.0378
     26 C         141.1528  143.3281  163.6470 C.ar    1  UNL1        0.0032
     27 C         141.9598  144.5868  163.5262 C.ar    1  UNL1        0.0296
     28 C         143.4470  144.5098  163.3465 C.ar    1  UNL1        0.1424
     29 F         144.2541  145.7685  163.2257 F       1  UNL1       -0.2041
     30 C         144.1272  143.1742  163.2877 C.ar    1  UNL1        0.0590
     31 C         143.3203  141.9155  163.4085 C.ar    1  UNL1        0.1413
     32 F         144.0005  140.5799  163.3497 F       1  UNL1       -0.2043
@<TRIPOS>BOND
     1    23    24    1
     2    24    15    1
     3    15    16   ar
     4    16    17   ar
     5    17     1    1
     6     1     2    1
     7     3     2    1
     8     3     4    1
     9     4     5    2
    10     4     6   am
    11     6     7    1
    12     6     8    1
    13     8     9    2
    14     8    10    1
    15    10    11    1
    16    11    25    1
    17    25    26   ar
    18    26    27   ar
    19    27    28   ar
    20    28    29    1
    21    28    30   ar
    22    30    31   ar
    23    31    32    1
    24    11    12    1
    25    17    18   ar
    26    18    19   ar
    27    19    20    1
    28    19    21   ar
    29    21    22    1
    30    21    15   ar
    31    12     1    1
    32    11     3    1
    33    31    25   ar
    34     9    13    1
    35    10    14    1
@<TRIPOS>MOLECULE
*****
 32 35 0 0 0
SMALL
GASTEIGER

@<TRIPOS>ATOM
      1 N         141.8753  140.4642  165.4022 N.pl3   1  UNL1       -0.2740
      2 C         142.7662  139.5359  164.6312 C.3     1  UNL1        0.1079
      3 C         142.4346  139.6781  163.1752 C.3     1  UNL1        0.1494
      4 C         142.9890  139.0136  161.9501 C.2     1  UNL1        0.2919
      5 O         144.0849  137.9974  162.0788 O.2     1  UNL1       -0.2563
      6 N         142.4474  139.3652  160.5961 N.am    1  UNL1       -0.1449
      7 C         143.0018  138.7006  159.3708 C.3     1  UNL1        0.2159
      8 C         141.3516  140.3813  160.4673 C.2     1  UNL1        0.3728
      9 N         140.8101  140.7329  159.1134 N.2     1  UNL1       -0.1329
     10 N         140.7972  141.0458  161.6925 N.pl3   1  UNL1       -0.2251
     11 C         141.3387  140.6942  163.0464 C.3     1  UNL1        0.1526
     12 C         140.9930  141.1801  164.4228 C.3     1  UNL1        0.1323
     13 H         141.1739  140.2968  158.3092 H       1  UNL1        0.3058
     14 H         140.0780  141.7127  161.6080 H       1  UNL1        0.2454
     15 C         140.7785  140.1958  169.2069 C.ar    1  UNL1        0.2569
     16 N         140.7860  140.0151  167.7178 N.ar    1  UNL1       -0.1768
     17 C         141.8678  140.6449  166.8913 C.ar    1  UNL1        0.2226
     18 N         142.9421  141.4554  167.5538 N.ar    1  UNL1       -0.2155
     19 C         142.9346  141.6360  169.0429 C.ar    1  UNL1        0.0942
     20 C         144.0089  142.4465  169.7055 C.3     1  UNL1        0.0548
     21 C         141.8528  141.0063  169.8694 C.ar    1  UNL1        0.2065
     22 F         141.8454  141.1870  171.3585 F       1  UNL1       -0.1980
     23 C         138.3813  140.2659  170.2062 C.3     1  UNL1        0.2543
     24 O         139.6967  139.5660  170.0333 O.3     1  UNL1       -0.4545
     25 C         140.2481  141.7237  163.0740 C.ar    1  UNL1        0.0378
     26 C         140.5917  143.1823  163.0085 C.ar    1  UNL1        0.0032
     27 C         139.5011  144.2117  163.0361 C.ar    1  UNL1        0.0296
     28 C         138.0668  143.7825  163.1292 C.ar    1  UNL1        0.1424
     29 F         136.9761  144.8120  163.1568 F       1  UNL1       -0.2041
     30 C         137.7232  142.3238  163.1947 C.ar    1  UNL1        0.0590
     31 C         138.8139  141.2944  163.1672 C.ar    1  UNL1        0.1413
     32 F         138.4702  139.8358  163.2327 F       1  UNL1       -0.2043
@<TRIPOS>BOND
     1    23    24    1
     2    24    15    1
     3    15    16   ar
     4    16    17   ar
     5    17     1    1
     6     1     2    1
     7     3     2    1
     8     3     4    1
     9     4     5    2
    10     4     6   am
    11     6     7    1
    12     6     8    1
    13     8     9    2
    14     8    10    1
    15    10    11    1
    16    11    25    1
    17    25    26   ar
    18    26    27   ar
    19    27    28   ar
    20    28    29    1
    21    28    30   ar
    22    30    31   ar
    23    31    32    1
    24    11    12    1
    25    17    18   ar
    26    18    19   ar
    27    19    20    1
    28    19    21   ar
    29    21    22    1
    30    21    15   ar
    31    12     1    1
    32    11     3    1
    33    31    25   ar
    34     9    13    1
    35    10    14    1
@<TRIPOS>MOLECULE
*****
 32 35 0 0 0
SMALL
GASTEIGER

@<TRIPOS>ATOM
      1 N         142.1552  142.1436  165.7224 N.pl3   1  UNL1       -0.2740
      2 C         142.8677  143.1236  164.8381 C.3     1  UNL1        0.1079
      3 C         142.6160  142.7298  163.4128 C.3     1  UNL1        0.1494
      4 C         143.0651  143.3272  162.1122 C.2     1  UNL1        0.2919
      5 O         143.9331  144.5505  162.1087 O.2     1  UNL1       -0.2563
      6 N         142.6461  142.7011  160.8150 N.am    1  UNL1       -0.1449
      7 C         143.0952  143.2985  159.5144 C.3     1  UNL1        0.2159
      8 C         141.7782  141.4778  160.8185 C.2     1  UNL1        0.3728
      9 N         141.3592  140.8518  159.5213 N.2     1  UNL1       -0.1329
     10 N         141.3291  140.8805  162.1190 N.pl3   1  UNL1       -0.2251
     11 C         141.7480  141.5065  163.4162 C.3     1  UNL1        0.1526
     12 C         141.4632  141.1442  164.8436 C.3     1  UNL1        0.1323
     13 H         141.6539  141.2438  158.6676 H       1  UNL1        0.3058
     14 H         140.7594  140.0776  162.1212 H       1  UNL1        0.2454
     15 C         140.8446  141.8984  169.4604 C.ar    1  UNL1        0.2569
     16 N         140.8621  141.8819  167.9606 N.ar    1  UNL1       -0.1768
     17 C         142.1378  142.1602  167.2222 C.ar    1  UNL1        0.2226
     18 N         143.3961  142.4550  167.9837 N.ar    1  UNL1       -0.2155
     19 C         143.3786  142.4715  169.4835 C.ar    1  UNL1        0.0942
     20 C         144.6368  142.7663  170.2450 C.3     1  UNL1        0.0548
     21 C         142.1029  142.1932  170.2219 C.ar    1  UNL1        0.2065
     22 F         142.0855  142.2097  171.7217 F       1  UNL1       -0.1980
     23 C         138.8116  140.3522  169.9361 C.3     1  UNL1        0.2543
     24 O         139.5689  141.6201  170.1987 O.3     1  UNL1       -0.4545
     25 C         140.8829  140.2916  163.5764 C.ar    1  UNL1        0.0378
     26 C         139.3914  140.4363  163.6423 C.ar    1  UNL1        0.0032
     27 C         138.5263  139.2215  163.8025 C.ar    1  UNL1        0.0296
     28 C         139.1528  137.8618  163.8967 C.ar    1  UNL1        0.1424
     29 F         138.2877  136.6468  164.0569 F       1  UNL1       -0.2041
     30 C         140.6444  137.7171  163.8307 C.ar    1  UNL1        0.0590
     31 C         141.5094  138.9320  163.6706 C.ar    1  UNL1        0.1413
     32 F         143.0010  138.7872  163.6046 F       1  UNL1       -0.2043
@<TRIPOS>BOND
     1    23    24    1
     2    24    15    1
     3    15    16   ar
     4    16    17   ar
     5    17     1    1
     6     1     2    1
     7     3     2    1
     8     3     4    1
     9     4     5    2
    10     4     6   am
    11     6     7    1
    12     6     8    1
    13     8     9    2
    14     8    10    1
    15    10    11    1
    16    11    25    1
    17    25    26   ar
    18    26    27   ar
    19    27    28   ar
    20    28    29    1
    21    28    30   ar
    22    30    31   ar
    23    31    32    1
    24    11    12    1
    25    17    18   ar
    26    18    19   ar
    27    19    20    1
    28    19    21   ar
    29    21    22    1
    30    21    15   ar
    31    12     1    1
    32    11     3    1
    33    31    25   ar
    34     9    13    1
    35    10    14    1
