@<TRIPOS>MOLECULE
*****
 22 25 0 0 0
SMALL
GASTEIGER

@<TRIPOS>ATOM
      1 O         137.8234  138.5403  166.5392 O.2     1  UNL1       -0.2523
      2 C         139.1473  139.1256  166.1460 C.2     1  UNL1        0.3077
      3 N         139.6651  138.9389  164.7507 N.am    1  UNL1       -0.2612
      4 C         140.9891  139.5242  164.3574 C.3     1  UNL1        0.1123
      5 C         141.5069  139.3375  162.9621 C.3     1  UNL1        0.0939
      6 N         140.7008  138.5656  161.9600 N.3     1  UNL1       -0.2711
      7 C         139.3768  137.9803  162.3531 C.3     1  UNL1        0.0939
      8 C         138.8589  138.1670  163.7485 C.3     1  UNL1        0.1123
      9 N         139.9534  139.8975  167.1481 N.am    1  UNL1       -0.2558
     10 C         139.5670  140.1650  168.5726 C.3     1  UNL1        0.1217
     11 C         140.6623  140.9703  169.2066 C.ar    1  UNL1       -0.0046
     12 C         140.8287  141.5237  170.5908 C.ar    1  UNL1       -0.0029
     13 C         142.0585  142.3073  170.9423 C.ar    1  UNL1       -0.0003
     14 C         143.1218  142.5374  169.9097 C.ar    1  UNL1       -0.0003
     15 C         142.9554  141.9840  168.5255 C.ar    1  UNL1       -0.0029
     16 C         141.7256  141.2004  168.1740 C.ar    1  UNL1       -0.0046
     17 C         141.2875  140.5374  166.9018 C.3     1  UNL1        0.1217
     18 C         141.2186  138.3789  160.5646 C.3     1  UNL1        0.0576
     19 C         142.5926  137.9081  160.1898 C.3     1  UNL1        0.0160
     20 C         142.6766  137.8685  158.6926 C.3     1  UNL1        0.0014
     21 C         141.3545  138.3148  158.1422 C.3     1  UNL1        0.0014
     22 C         140.4535  138.6303  159.2991 C.3     1  UNL1        0.0160
@<TRIPOS>BOND
     1     1     2    2
     2     2     3   am
     3     3     4    1
     4     4     5    1
     5     5     6    1
     6     6    18    1
     7    18    19    1
     8    19    20    1
     9    20    21    1
    10    21    22    1
    11     6     7    1
    12     7     8    1
    13     2     9   am
    14     9    10    1
    15    10    11    1
    16    11    12   ar
    17    12    13   ar
    18    13    14   ar
    19    14    15   ar
    20    15    16   ar
    21    16    17    1
    22     8     3    1
    23    17     9    1
    24    22    18    1
    25    16    11   ar
@<TRIPOS>MOLECULE
*****
 22 25 0 0 0
SMALL
GASTEIGER

@<TRIPOS>ATOM
      1 O         138.9833  145.1068  165.3959 O.2     1  UNL1       -0.2523
      2 C         139.9318  144.2052  164.6629 C.2     1  UNL1        0.3077
      3 N         140.2293  144.4493  163.2131 N.am    1  UNL1       -0.2612
      4 C         141.1779  143.5477  162.4800 C.3     1  UNL1        0.1123
      5 C         141.4754  143.7918  161.0302 C.3     1  UNL1        0.0939
      6 N         140.8243  144.9374  160.3135 N.3     1  UNL1       -0.2711
      7 C         139.8758  145.8390  161.0465 C.3     1  UNL1        0.0939
      8 C         139.5782  145.5949  162.4964 C.3     1  UNL1        0.1123
      9 N         140.5829  143.0596  165.3796 N.am    1  UNL1       -0.2558
     10 C         140.3835  142.6933  166.8204 C.3     1  UNL1        0.1217
     11 C         141.2250  141.4865  167.1127 C.ar    1  UNL1       -0.0046
     12 C         141.4291  140.6842  168.3635 C.ar    1  UNL1       -0.0029
     13 C         142.3526  139.5023  168.3540 C.ar    1  UNL1       -0.0003
     14 C         143.0721  139.1226  167.0937 C.ar    1  UNL1       -0.0003
     15 C         142.8680  139.9249  165.8429 C.ar    1  UNL1       -0.0029
     16 C         141.9444  141.1069  165.8524 C.ar    1  UNL1       -0.0046
     17 C         141.5476  142.0791  164.7813 C.3     1  UNL1        0.1217
     18 C         141.1219  145.1814  158.8636 C.3     1  UNL1        0.0576
     19 C         142.2804  144.6189  158.0946 C.3     1  UNL1        0.0160
     20 C         142.1877  145.1206  156.6839 C.3     1  UNL1        0.0014
     21 C         140.9719  145.9932  156.5813 C.3     1  UNL1        0.0014
     22 C         140.3132  146.0308  157.9284 C.3     1  UNL1        0.0160
@<TRIPOS>BOND
     1     1     2    2
     2     2     3   am
     3     3     4    1
     4     4     5    1
     5     5     6    1
     6     6    18    1
     7    18    19    1
     8    19    20    1
     9    20    21    1
    10    21    22    1
    11     6     7    1
    12     7     8    1
    13     2     9   am
    14     9    10    1
    15    10    11    1
    16    11    12   ar
    17    12    13   ar
    18    13    14   ar
    19    14    15   ar
    20    15    16   ar
    21    16    17    1
    22     8     3    1
    23    17     9    1
    24    22    18    1
    25    16    11   ar
@<TRIPOS>MOLECULE
*****
 22 25 0 0 0
SMALL
GASTEIGER

@<TRIPOS>ATOM
      1 O         138.7709  137.3810  165.4481 O.2     1  UNL1       -0.2523
      2 C         139.6047  138.6111  165.2444 C.2     1  UNL1        0.3077
      3 N         140.2795  138.8499  163.9263 N.am    1  UNL1       -0.2612
      4 C         141.1134  140.0800  163.7225 C.3     1  UNL1        0.1123
      5 C         141.7882  140.3188  162.4044 C.3     1  UNL1        0.0939
      6 N         141.6291  139.3276  161.2899 N.3     1  UNL1       -0.2711
      7 C         140.7953  138.0975  161.4936 C.3     1  UNL1        0.0939
      8 C         140.1205  137.8586  162.8118 C.3     1  UNL1        0.1123
      9 N         139.7638  139.6024  166.3589 N.am    1  UNL1       -0.2558
     10 C         139.1526  139.4989  167.7248 C.3     1  UNL1        0.1217
     11 C         139.5731  140.7038  168.5133 C.ar    1  UNL1       -0.0046
     12 C         139.2753  141.1382  169.9177 C.ar    1  UNL1       -0.0029
     13 C         139.8486  142.4207  170.4435 C.ar    1  UNL1       -0.0003
     14 C         140.7196  143.2688  169.5649 C.ar    1  UNL1       -0.0003
     15 C         141.0174  142.8344  168.1604 C.ar    1  UNL1       -0.0029
     16 C         140.4441  141.5519  167.6346 C.ar    1  UNL1       -0.0046
     17 C         140.5620  140.8712  166.3032 C.3     1  UNL1        0.1217
     18 C         142.3040  139.5664  159.9717 C.3     1  UNL1        0.0576
     19 C         143.5660  140.3480  159.7562 C.3     1  UNL1        0.0160
     20 C         143.8773  140.3303  158.2889 C.3     1  UNL1        0.0014
     21 C         142.8076  139.5378  157.5976 C.3     1  UNL1        0.0014
     22 C         141.8353  139.0657  158.6377 C.3     1  UNL1        0.0160
@<TRIPOS>BOND
     1     1     2    2
     2     2     3   am
     3     3     4    1
     4     4     5    1
     5     5     6    1
     6     6    18    1
     7    18    19    1
     8    19    20    1
     9    20    21    1
    10    21    22    1
    11     6     7    1
    12     7     8    1
    13     2     9   am
    14     9    10    1
    15    10    11    1
    16    11    12   ar
    17    12    13   ar
    18    13    14   ar
    19    14    15   ar
    20    15    16   ar
    21    16    17    1
    22     8     3    1
    23    17     9    1
    24    22    18    1
    25    16    11   ar
@<TRIPOS>MOLECULE
*****
 22 25 0 0 0
SMALL
GASTEIGER

@<TRIPOS>ATOM
      1 O         137.9066  139.6704  165.3862 O.2     1  UNL1       -0.2523
      2 C         139.0554  140.6276  165.2687 C.2     1  UNL1        0.3077
      3 N         139.2525  141.4112  164.0050 N.am    1  UNL1       -0.2612
      4 C         140.4014  142.3685  163.8875 C.3     1  UNL1        0.1123
      5 C         140.5984  143.1522  162.6238 C.3     1  UNL1        0.0939
      6 N         139.6466  142.9786  161.4776 N.3     1  UNL1       -0.2711
      7 C         138.4977  142.0214  161.5950 C.3     1  UNL1        0.0939
      8 C         138.3007  141.2377  162.8588 C.3     1  UNL1        0.1123
      9 N         140.0073  140.8011  166.4150 N.am    1  UNL1       -0.2558
     10 C         139.9381  140.0900  167.7339 C.3     1  UNL1        0.1217
     11 C         141.0835  140.5656  168.5777 C.ar    1  UNL1       -0.0046
     12 C         141.5192  140.2134  169.9690 C.ar    1  UNL1       -0.0029
     13 C         142.7320  140.8662  170.5630 C.ar    1  UNL1       -0.0003
     14 C         143.5091  141.8713  169.7656 C.ar    1  UNL1       -0.0003
     15 C         143.0733  142.2236  168.3742 C.ar    1  UNL1       -0.0029
     16 C         141.8605  141.5708  167.7802 C.ar    1  UNL1       -0.0046
     17 C         141.1954  141.7163  166.4437 C.3     1  UNL1        0.1217
     18 C         139.8437  143.7623  160.2138 C.3     1  UNL1        0.0576
     19 C         140.3363  145.1761  160.1210 C.3     1  UNL1        0.0160
     20 C         140.3798  145.5575  158.6708 C.3     1  UNL1        0.0014
     21 C         139.9141  144.3793  157.8675 C.3     1  UNL1        0.0014
     22 C         139.5828  143.2699  158.8212 C.3     1  UNL1        0.0160
@<TRIPOS>BOND
     1     1     2    2
     2     2     3   am
     3     3     4    1
     4     4     5    1
     5     5     6    1
     6     6    18    1
     7    18    19    1
     8    19    20    1
     9    20    21    1
    10    21    22    1
    11     6     7    1
    12     7     8    1
    13     2     9   am
    14     9    10    1
    15    10    11    1
    16    11    12   ar
    17    12    13   ar
    18    13    14   ar
    19    14    15   ar
    20    15    16   ar
    21    16    17    1
    22     8     3    1
    23    17     9    1
    24    22    18    1
    25    16    11   ar
@<TRIPOS>MOLECULE
*****
 22 25 0 0 0
SMALL
GASTEIGER

@<TRIPOS>ATOM
      1 O         144.6845  141.1764  162.5116 O.2     1  UNL1       -0.2523
      2 C         143.4305  141.9724  162.7211 C.2     1  UNL1        0.3077
      3 N         142.7530  141.9660  164.0593 N.am    1  UNL1       -0.2612
      4 C         141.4990  142.7620  164.2689 C.3     1  UNL1        0.1123
      5 C         140.8215  142.7556  165.6072 C.3     1  UNL1        0.0939
      6 N         141.3979  141.9533  166.7359 N.3     1  UNL1       -0.2711
      7 C         142.6519  141.1573  166.5263 C.3     1  UNL1        0.0939
      8 C         143.3295  141.1637  165.1880 C.3     1  UNL1        0.1123
      9 N         142.8540  142.7747  161.5924 N.am    1  UNL1       -0.2558
     10 C         143.4173  142.8775  160.2060 C.3     1  UNL1        0.1217
     11 C         142.5245  143.7814  159.4087 C.ar    1  UNL1       -0.0046
     12 C         142.5828  144.2483  157.9844 C.ar    1  UNL1       -0.0029
     13 C         141.5260  145.1711  157.4538 C.ar    1  UNL1       -0.0003
     14 C         140.4109  145.6270  158.3474 C.ar    1  UNL1       -0.0003
     15 C         140.3525  145.1601  159.7717 C.ar    1  UNL1       -0.0029
     16 C         141.4093  144.2373  160.3023 C.ar    1  UNL1       -0.0046
     17 C         141.6130  143.6151  161.6519 C.3     1  UNL1        0.1217
     18 C         140.7204  141.9470  168.0742 C.3     1  UNL1        0.0576
     19 C         139.9896  140.7891  168.6869 C.3     1  UNL1        0.0160
     20 C         139.4722  141.2239  170.0261 C.3     1  UNL1        0.0014
     21 C         139.8832  142.6504  170.2409 C.3     1  UNL1        0.0014
     22 C         140.6546  143.0973  169.0346 C.3     1  UNL1        0.0160
@<TRIPOS>BOND
     1     1     2    2
     2     2     3   am
     3     3     4    1
     4     4     5    1
     5     5     6    1
     6     6    18    1
     7    18    19    1
     8    19    20    1
     9    20    21    1
    10    21    22    1
    11     6     7    1
    12     7     8    1
    13     2     9   am
    14     9    10    1
    15    10    11    1
    16    11    12   ar
    17    12    13   ar
    18    13    14   ar
    19    14    15   ar
    20    15    16   ar
    21    16    17    1
    22     8     3    1
    23    17     9    1
    24    22    18    1
    25    16    11   ar
@<TRIPOS>MOLECULE
*****
 22 25 0 0 0
SMALL
GASTEIGER

@<TRIPOS>ATOM
      1 O         143.9513  138.0169  166.2876 O.2     1  UNL1       -0.2523
      2 C         143.3179  139.3397  165.9731 C.2     1  UNL1        0.3077
      3 N         143.3824  139.8896  164.5791 N.am    1  UNL1       -0.2612
      4 C         142.7490  141.2125  164.2646 C.3     1  UNL1        0.1123
      5 C         142.8134  141.7624  162.8705 C.3     1  UNL1        0.0939
      6 N         143.5113  140.9894  161.7909 N.3     1  UNL1       -0.2711
      7 C         144.1447  139.6666  162.1054 C.3     1  UNL1        0.0939
      8 C         144.0802  139.1167  163.4995 C.3     1  UNL1        0.1123
      9 N         142.6201  140.1127  167.0528 N.am    1  UNL1       -0.2558
     10 C         142.4756  139.6923  168.4854 C.3     1  UNL1        0.1217
     11 C         141.7104  140.7615  169.2073 C.ar    1  UNL1       -0.0046
     12 C         141.2703  140.8903  170.6355 C.ar    1  UNL1       -0.0029
     13 C         140.5017  142.1003  171.0772 C.ar    1  UNL1       -0.0003
     14 C         140.1733  143.1815  170.0908 C.ar    1  UNL1       -0.0003
     15 C         140.6134  143.0528  168.6626 C.ar    1  UNL1       -0.0029
     16 C         141.3819  141.8428  168.2209 C.ar    1  UNL1       -0.0046
     17 C         141.9441  141.4418  166.8893 C.3     1  UNL1        0.1217
     18 C         143.5757  141.5394  160.3968 C.3     1  UNL1        0.0576
     19 C         143.4232  142.9805  160.0097 C.3     1  UNL1        0.0160
     20 C         143.5572  143.0766  158.5187 C.3     1  UNL1        0.0014
     21 C         143.7926  141.6948  157.9845 C.3     1  UNL1        0.0014
     22 C         143.8040  140.7448  159.1452 C.3     1  UNL1        0.0160
@<TRIPOS>BOND
     1     1     2    2
     2     2     3   am
     3     3     4    1
     4     4     5    1
     5     5     6    1
     6     6    18    1
     7    18    19    1
     8    19    20    1
     9    20    21    1
    10    21    22    1
    11     6     7    1
    12     7     8    1
    13     2     9   am
    14     9    10    1
    15    10    11    1
    16    11    12   ar
    17    12    13   ar
    18    13    14   ar
    19    14    15   ar
    20    15    16   ar
    21    16    17    1
    22     8     3    1
    23    17     9    1
    24    22    18    1
    25    16    11   ar
@<TRIPOS>MOLECULE
*****
 22 25 0 0 0
SMALL
GASTEIGER

@<TRIPOS>ATOM
      1 O         139.4486  144.8996  164.5281 O.2     1  UNL1       -0.2523
      2 C         139.4869  143.8083  163.4997 C.2     1  UNL1        0.3077
      3 N         139.7362  144.1439  162.0591 N.am    1  UNL1       -0.2612
      4 C         139.7745  143.0527  161.0306 C.3     1  UNL1        0.1123
      5 C         140.0237  143.3882  159.5900 C.3     1  UNL1        0.0939
      6 N         140.2347  144.8150  159.1779 N.3     1  UNL1       -0.2711
      7 C         140.1964  145.9062  160.2064 C.3     1  UNL1        0.0939
      8 C         139.9471  145.5707  161.6470 C.3     1  UNL1        0.1123
      9 N         139.2760  142.3816  163.9118 N.am    1  UNL1       -0.2558
     10 C         139.0177  141.8959  165.3073 C.3     1  UNL1        0.1217
     11 C         138.8683  140.4041  165.2587 C.ar    1  UNL1       -0.0046
     12 C         138.6026  139.3867  166.3283 C.ar    1  UNL1       -0.0029
     13 C         138.5030  137.9329  165.9725 C.ar    1  UNL1       -0.0003
     14 C         138.6690  137.4967  164.5469 C.ar    1  UNL1       -0.0003
     15 C         138.9347  138.5141  163.4773 C.ar    1  UNL1       -0.0029
     16 C         139.0343  139.9678  163.8332 C.ar    1  UNL1       -0.0046
     17 C         139.2863  141.1900  163.0008 C.3     1  UNL1        0.1217
     18 C         140.4839  145.1506  157.7373 C.3     1  UNL1        0.0576
     19 C         140.0383  146.3976  157.0327 C.3     1  UNL1        0.0160
     20 C         140.5015  146.3157  155.6083 C.3     1  UNL1        0.0014
     21 C         141.2333  145.0181  155.4327 C.3     1  UNL1        0.0014
     22 C         141.2224  144.2981  156.7485 C.3     1  UNL1        0.0160
@<TRIPOS>BOND
     1     1     2    2
     2     2     3   am
     3     3     4    1
     4     4     5    1
     5     5     6    1
     6     6    18    1
     7    18    19    1
     8    19    20    1
     9    20    21    1
    10    21    22    1
    11     6     7    1
    12     7     8    1
    13     2     9   am
    14     9    10    1
    15    10    11    1
    16    11    12   ar
    17    12    13   ar
    18    13    14   ar
    19    14    15   ar
    20    15    16   ar
    21    16    17    1
    22     8     3    1
    23    17     9    1
    24    22    18    1
    25    16    11   ar
@<TRIPOS>MOLECULE
*****
 22 25 0 0 0
SMALL
GASTEIGER

@<TRIPOS>ATOM
      1 O         139.4238  144.0166  158.7029 O.2     1  UNL1       -0.2523
      2 C         138.6130  142.7556  158.7521 C.2     1  UNL1        0.3077
      3 N         138.6085  141.9149  159.9943 N.am    1  UNL1       -0.2612
      4 C         137.7977  140.6538  160.0435 C.3     1  UNL1        0.1123
      5 C         137.7932  139.8130  161.2857 C.3     1  UNL1        0.0939
      6 N         138.5995  140.2333  162.4788 N.3     1  UNL1       -0.2711
      7 C         139.4103  141.4943  162.4296 C.3     1  UNL1        0.0939
      8 C         139.4148  142.3351  161.1873 C.3     1  UNL1        0.1123
      9 N         137.8067  142.3353  157.5591 N.am    1  UNL1       -0.2558
     10 C         137.7136  143.0700  156.2547 C.3     1  UNL1        0.1217
     11 C         136.8013  142.2953  155.3504 C.ar    1  UNL1       -0.0046
     12 C         136.3384  142.5381  153.9445 C.ar    1  UNL1       -0.0029
     13 C         135.4048  141.5674  153.2841 C.ar    1  UNL1       -0.0003
     14 C         134.9341  140.3540  154.0297 C.ar    1  UNL1       -0.0003
     15 C         135.3970  140.1112  155.4357 C.ar    1  UNL1       -0.0029
     16 C         136.3306  141.0819  156.0960 C.ar    1  UNL1       -0.0046
     17 C         136.9520  141.1066  157.4610 C.3     1  UNL1        0.1217
     18 C         138.5950  139.3925  163.7210 C.3     1  UNL1        0.0576
     19 C         138.9495  137.9372  163.8018 C.3     1  UNL1        0.0160
     20 C         138.8088  137.5046  165.2313 C.3     1  UNL1        0.0014
     21 C         138.3673  138.6926  166.0337 C.3     1  UNL1        0.0014
     22 C         138.2351  139.8593  165.1003 C.3     1  UNL1        0.0160
@<TRIPOS>BOND
     1     1     2    2
     2     2     3   am
     3     3     4    1
     4     4     5    1
     5     5     6    1
     6     6    18    1
     7    18    19    1
     8    19    20    1
     9    20    21    1
    10    21    22    1
    11     6     7    1
    12     7     8    1
    13     2     9   am
    14     9    10    1
    15    10    11    1
    16    11    12   ar
    17    12    13   ar
    18    13    14   ar
    19    14    15   ar
    20    15    16   ar
    21    16    17    1
    22     8     3    1
    23    17     9    1
    24    22    18    1
    25    16    11   ar
@<TRIPOS>MOLECULE
*****
 22 25 0 0 0
SMALL
GASTEIGER

@<TRIPOS>ATOM
      1 O         141.6951  145.2052  163.9594 O.2     1  UNL1       -0.2523
      2 C         140.8293  144.0871  163.4592 C.2     1  UNL1        0.3077
      3 N         140.4280  144.0379  162.0147 N.am    1  UNL1       -0.2612
      4 C         139.5622  142.9198  161.5144 C.3     1  UNL1        0.1123
      5 C         139.1609  142.8706  160.0700 C.3     1  UNL1        0.0939
      6 N         139.6253  143.9396  159.1257 N.3     1  UNL1       -0.2711
      7 C         140.4911  145.0577  159.6259 C.3     1  UNL1        0.0939
      8 C         140.8924  145.1069  161.0705 C.3     1  UNL1        0.1123
      9 N         140.3648  143.0181  164.4034 N.am    1  UNL1       -0.2558
     10 C         140.6837  142.9350  165.8668 C.3     1  UNL1        0.1217
     11 C         140.0159  141.7101  166.4179 C.ar    1  UNL1       -0.0046
     12 C         139.9794  141.1214  167.7970 C.ar    1  UNL1       -0.0029
     13 C         139.2114  139.8587  168.0533 C.ar    1  UNL1       -0.0003
     14 C         138.4799  139.1847  166.9305 C.ar    1  UNL1       -0.0003
     15 C         138.5163  139.7735  165.5514 C.ar    1  UNL1       -0.0029
     16 C         139.2843  141.0362  165.2951 C.ar    1  UNL1       -0.0046
     17 C         139.5000  141.8446  164.0501 C.3     1  UNL1        0.1217
     18 C         139.2239  143.8904  157.6812 C.3     1  UNL1        0.0576
     19 C         139.6760  144.8358  156.6079 C.3     1  UNL1        0.0160
     20 C         139.0315  144.4169  155.3198 C.3     1  UNL1        0.0014
     21 C         138.1812  143.2126  155.5970 C.3     1  UNL1        0.0014
     22 C         138.3002  142.8873  157.0565 C.3     1  UNL1        0.0160
@<TRIPOS>BOND
     1     1     2    2
     2     2     3   am
     3     3     4    1
     4     4     5    1
     5     5     6    1
     6     6    18    1
     7    18    19    1
     8    19    20    1
     9    20    21    1
    10    21    22    1
    11     6     7    1
    12     7     8    1
    13     2     9   am
    14     9    10    1
    15    10    11    1
    16    11    12   ar
    17    12    13   ar
    18    13    14   ar
    19    14    15   ar
    20    15    16   ar
    21    16    17    1
    22     8     3    1
    23    17     9    1
    24    22    18    1
    25    16    11   ar
