@<TRIPOS>MOLECULE
*****
 20 20 0 0 0
SMALL
GASTEIGER

@<TRIPOS>ATOM
      1 N         138.8020  138.5625  163.7435 N.3     1  UNL1       -0.2727
      2 C         138.3948  138.0116  162.4091 C.3     1  UNL1        0.0721
      3 C         139.2992  138.1731  161.2234 C.3     1  UNL1        0.0188
      4 C         138.5468  140.0043  164.0693 C.3     1  UNL1        0.0721
      5 C         139.6571  140.8607  164.6021 C.3     1  UNL1        0.0173
      6 C         139.5968  141.3770  166.0091 C.3     1  UNL1        0.0014
      7 C         139.9630  142.8020  166.3014 C.3     1  UNL1        0.0000
      8 C         140.1767  143.7679  165.1739 C.3     1  UNL1        0.0000
      9 C         137.6676  144.2899  164.7471 C.3     1  UNL1        0.0000
     10 C         139.0968  144.7417  164.8056 C.3     1  UNL1        0.0000
     11 C         139.4645  137.6715  164.7522 C.3     1  UNL1        0.0721
     12 C         140.8490  137.1524  164.4996 C.3     1  UNL1        0.0177
     13 C         142.0130  138.0983  164.4818 C.3     1  UNL1        0.0061
     14 C         142.8559  138.2734  165.7101 C.3     1  UNL1        0.0264
     15 C         142.9383  139.6138  166.3783 C.ar    1  UNL1       -0.0222
     16 C         142.6298  139.7431  167.8406 C.ar    1  UNL1       -0.0043
     17 C         142.7122  141.0835  168.5088 C.ar    1  UNL1       -0.0003
     18 C         143.1029  142.2946  167.7149 C.ar    1  UNL1       -0.0000
     19 C         143.4114  142.1654  166.2527 C.ar    1  UNL1       -0.0003
     20 C         143.3290  140.8250  165.5844 C.ar    1  UNL1       -0.0043
@<TRIPOS>BOND
     1     9    10    1
     2    10     8    1
     3     8     7    1
     4     7     6    1
     5     6     5    1
     6     5     4    1
     7     4     1    1
     8     1     2    1
     9     2     3    1
    10     1    11    1
    11    11    12    1
    12    12    13    1
    13    13    14    1
    14    14    15    1
    15    15    16   ar
    16    16    17   ar
    17    17    18   ar
    18    18    19   ar
    19    19    20   ar
    20    20    15   ar
@<TRIPOS>MOLECULE
*****
 20 20 0 0 0
SMALL
GASTEIGER

@<TRIPOS>ATOM
      1 N         140.4619  144.5013  163.8663 N.3     1  UNL1       -0.2727
      2 C         140.8101  144.9763  162.4868 C.3     1  UNL1        0.0721
      3 C         140.0055  146.0667  161.8436 C.3     1  UNL1        0.0188
      4 C         141.4493  143.6900  164.6517 C.3     1  UNL1        0.0721
      5 C         141.2489  142.2118  164.8092 C.3     1  UNL1        0.0173
      6 C         141.5412  141.2891  163.6633 C.3     1  UNL1        0.0014
      7 C         142.6871  140.3251  163.7500 C.3     1  UNL1        0.0000
      8 C         142.4253  138.8693  163.9992 C.3     1  UNL1        0.0000
      9 C         142.8766  139.2122  166.5347 C.3     1  UNL1        0.0000
     10 C         142.4382  138.3340  165.4004 C.3     1  UNL1        0.0000
     11 C         139.1262  144.8374  164.4604 C.3     1  UNL1        0.0721
     12 C         137.8978  144.1059  164.0063 C.3     1  UNL1        0.0177
     13 C         137.6429  142.7044  164.4763 C.3     1  UNL1        0.0061
     14 C         137.7557  141.5587  163.5147 C.3     1  UNL1        0.0264
     15 C         138.1585  140.2012  164.0095 C.ar    1  UNL1       -0.0222
     16 C         138.4892  139.1138  163.0306 C.ar    1  UNL1       -0.0043
     17 C         138.8919  137.7563  163.5254 C.ar    1  UNL1       -0.0003
     18 C         138.9640  137.4860  164.9991 C.ar    1  UNL1       -0.0000
     19 C         138.6333  138.5734  165.9780 C.ar    1  UNL1       -0.0003
     20 C         138.2305  139.9309  165.4832 C.ar    1  UNL1       -0.0043
@<TRIPOS>BOND
     1     9    10    1
     2    10     8    1
     3     8     7    1
     4     7     6    1
     5     6     5    1
     6     5     4    1
     7     4     1    1
     8     1     2    1
     9     2     3    1
    10     1    11    1
    11    11    12    1
    12    12    13    1
    13    13    14    1
    14    14    15    1
    15    15    16   ar
    16    16    17   ar
    17    17    18   ar
    18    18    19   ar
    19    19    20   ar
    20    20    15   ar
@<TRIPOS>MOLECULE
*****
 20 20 0 0 0
SMALL
GASTEIGER

@<TRIPOS>ATOM
      1 N         137.9153  142.7713  162.6186 N.3     1  UNL1       -0.2727
      2 C         138.6379  142.5083  161.3307 C.3     1  UNL1        0.0721
      3 C         139.7853  143.3839  160.9222 C.3     1  UNL1        0.0188
      4 C         137.2794  141.6374  163.3669 C.3     1  UNL1        0.0721
      5 C         138.1249  140.5096  163.8799 C.3     1  UNL1        0.0173
      6 C         138.3270  140.3349  165.3558 C.3     1  UNL1        0.0014
      7 C         138.8707  139.0433  165.8907 C.3     1  UNL1        0.0000
      8 C         139.0822  137.8794  164.9685 C.3     1  UNL1        0.0000
      9 C         140.9163  137.2398  163.2431 C.3     1  UNL1        0.0000
     10 C         140.4726  137.4047  164.6666 C.3     1  UNL1        0.0000
     11 C         137.8286  144.1682  163.1582 C.3     1  UNL1        0.0721
     12 C         137.8778  144.4047  164.6387 C.3     1  UNL1        0.0177
     13 C         139.1259  144.0873  165.4078 C.3     1  UNL1        0.0061
     14 C         140.4163  143.8533  164.6798 C.3     1  UNL1        0.0264
     15 C         141.2026  142.6009  164.9309 C.ar    1  UNL1       -0.0222
     16 C         141.6642  141.7611  163.7769 C.ar    1  UNL1       -0.0043
     17 C         142.4505  140.5086  164.0280 C.ar    1  UNL1       -0.0003
     18 C         142.7752  140.0959  165.4331 C.ar    1  UNL1       -0.0000
     19 C         142.3136  140.9356  166.5870 C.ar    1  UNL1       -0.0003
     20 C         141.5273  142.1881  166.3359 C.ar    1  UNL1       -0.0043
@<TRIPOS>BOND
     1     9    10    1
     2    10     8    1
     3     8     7    1
     4     7     6    1
     5     6     5    1
     6     5     4    1
     7     4     1    1
     8     1     2    1
     9     2     3    1
    10     1    11    1
    11    11    12    1
    12    12    13    1
    13    13    14    1
    14    14    15    1
    15    15    16   ar
    16    16    17   ar
    17    17    18   ar
    18    18    19   ar
    19    19    20   ar
    20    20    15   ar
@<TRIPOS>MOLECULE
*****
 20 20 0 0 0
SMALL
GASTEIGER

@<TRIPOS>ATOM
      1 N         139.5574  139.7042  165.0564 N.3     1  UNL1       -0.2727
      2 C         138.2187  139.2123  165.5211 C.3     1  UNL1        0.0721
      3 C         138.0160  138.8350  166.9586 C.3     1  UNL1        0.0188
      4 C         139.6700  141.0294  164.3626 C.3     1  UNL1        0.0721
      5 C         138.4619  141.6452  163.7212 C.3     1  UNL1        0.0173
      6 C         137.6820  142.6999  164.4487 C.3     1  UNL1        0.0014
      7 C         138.0317  144.1477  164.2710 C.3     1  UNL1        0.0000
      8 C         139.3056  144.6881  164.8499 C.3     1  UNL1        0.0000
      9 C         141.7752  144.2540  164.1694 C.3     1  UNL1        0.0000
     10 C         140.4754  144.9713  163.9546 C.3     1  UNL1        0.0000
     11 C         140.7835  138.8710  165.2854 C.3     1  UNL1        0.0721
     12 C         141.7415  139.2320  166.3818 C.3     1  UNL1        0.0177
     13 C         142.9567  140.0559  166.0748 C.3     1  UNL1        0.0061
     14 C         142.9132  141.5464  166.2379 C.3     1  UNL1        0.0264
     15 C         142.3289  142.1480  167.4816 C.ar    1  UNL1       -0.0222
     16 C         143.1771  142.3048  168.7087 C.ar    1  UNL1       -0.0043
     17 C         142.5928  142.9064  169.9524 C.ar    1  UNL1       -0.0003
     18 C         141.1604  143.3512  169.9689 C.ar    1  UNL1       -0.0000
     19 C         140.3122  143.1943  168.7417 C.ar    1  UNL1       -0.0003
     20 C         140.8965  142.5927  167.4981 C.ar    1  UNL1       -0.0043
@<TRIPOS>BOND
     1     9    10    1
     2    10     8    1
     3     8     7    1
     4     7     6    1
     5     6     5    1
     6     5     4    1
     7     4     1    1
     8     1     2    1
     9     2     3    1
    10     1    11    1
    11    11    12    1
    12    12    13    1
    13    13    14    1
    14    14    15    1
    15    15    16   ar
    16    16    17   ar
    17    17    18   ar
    18    18    19   ar
    19    19    20   ar
    20    20    15   ar
@<TRIPOS>MOLECULE
*****
 20 20 0 0 0
SMALL
GASTEIGER

@<TRIPOS>ATOM
      1 N         144.8201  142.5699  163.8326 N.3     1  UNL1       -0.2727
      2 C         144.3570  143.4096  162.6793 C.3     1  UNL1        0.0721
      3 C         143.7743  144.7693  162.9278 C.3     1  UNL1        0.0188
      4 C         144.5498  143.0138  165.2398 C.3     1  UNL1        0.0721
      5 C         143.3846  142.4460  165.9946 C.3     1  UNL1        0.0173
      6 C         142.0026  142.9752  165.7497 C.3     1  UNL1        0.0014
      7 C         141.2442  142.5542  164.5259 C.3     1  UNL1        0.0000
      8 C         139.8438  143.0444  164.3058 C.3     1  UNL1        0.0000
      9 C         138.5300  144.9181  165.5360 C.3     1  UNL1        0.0000
     10 C         139.5200  144.4973  164.4905 C.3     1  UNL1        0.0000
     11 C         145.5535  141.2862  163.5790 C.3     1  UNL1        0.0721
     12 C         145.0984  140.0191  164.2405 C.3     1  UNL1        0.0177
     13 C         143.7299  139.4746  163.9566 C.3     1  UNL1        0.0061
     14 C         142.9943  138.7060  165.0141 C.3     1  UNL1        0.0264
     15 C         141.5700  139.0488  165.3364 C.ar    1  UNL1       -0.0222
     16 C         141.2096  139.5467  166.7046 C.ar    1  UNL1       -0.0043
     17 C         139.7854  139.8895  167.0269 C.ar    1  UNL1       -0.0003
     18 C         138.7215  139.7343  165.9810 C.ar    1  UNL1       -0.0000
     19 C         139.0818  139.2364  164.6128 C.ar    1  UNL1       -0.0003
     20 C         140.5061  138.8936  164.2905 C.ar    1  UNL1       -0.0043
@<TRIPOS>BOND
     1     9    10    1
     2    10     8    1
     3     8     7    1
     4     7     6    1
     5     6     5    1
     6     5     4    1
     7     4     1    1
     8     1     2    1
     9     2     3    1
    10     1    11    1
    11    11    12    1
    12    12    13    1
    13    13    14    1
    14    14    15    1
    15    15    16   ar
    16    16    17   ar
    17    17    18   ar
    18    18    19   ar
    19    19    20   ar
    20    20    15   ar
@<TRIPOS>MOLECULE
*****
 20 20 0 0 0
SMALL
GASTEIGER

@<TRIPOS>ATOM
      1 N         140.4500  138.9908  162.8953 N.3     1  UNL1       -0.2727
      2 C         141.2282  137.7181  163.0517 C.3     1  UNL1        0.0721
      3 C         141.2068  136.9817  164.3583 C.3     1  UNL1        0.0188
      4 C         141.1612  140.2686  162.5609 C.3     1  UNL1        0.0721
      5 C         142.0292  140.9345  163.5871 C.3     1  UNL1        0.0173
      6 C         141.9268  142.4143  163.8097 C.3     1  UNL1        0.0014
      7 C         140.5907  143.0925  163.7407 C.3     1  UNL1        0.0000
      8 C         140.3737  144.3960  164.4505 C.3     1  UNL1        0.0000
      9 C         137.8357  143.8779  164.6519 C.3     1  UNL1        0.0000
     10 C         139.0161  144.7408  164.9871 C.3     1  UNL1        0.0000
     11 C         138.9606  138.9859  163.0732 C.3     1  UNL1        0.0721
     12 C         138.2796  140.1512  163.7277 C.3     1  UNL1        0.0177
     13 C         138.0996  140.1751  165.2167 C.3     1  UNL1        0.0061
     14 C         139.1022  139.4992  166.1043 C.3     1  UNL1        0.0264
     15 C         140.2394  140.2855  166.6861 C.ar    1  UNL1       -0.0222
     16 C         141.5762  139.6351  166.8860 C.ar    1  UNL1       -0.0043
     17 C         142.7134  140.4214  167.4678 C.ar    1  UNL1       -0.0003
     18 C         142.5138  141.8582  167.8497 C.ar    1  UNL1       -0.0000
     19 C         141.1770  142.5086  167.6498 C.ar    1  UNL1       -0.0003
     20 C         140.0398  141.7222  167.0680 C.ar    1  UNL1       -0.0043
@<TRIPOS>BOND
     1     9    10    1
     2    10     8    1
     3     8     7    1
     4     7     6    1
     5     6     5    1
     6     5     4    1
     7     4     1    1
     8     1     2    1
     9     2     3    1
    10     1    11    1
    11    11    12    1
    12    12    13    1
    13    13    14    1
    14    14    15    1
    15    15    16   ar
    16    16    17   ar
    17    17    18   ar
    18    18    19   ar
    19    19    20   ar
    20    20    15   ar
@<TRIPOS>MOLECULE
*****
 20 20 0 0 0
SMALL
GASTEIGER

@<TRIPOS>ATOM
      1 N         141.6133  139.3197  163.2582 N.3     1  UNL1       -0.2727
      2 C         141.0421  137.9334  163.2132 C.3     1  UNL1        0.0721
      3 C         141.1846  137.0247  164.3980 C.3     1  UNL1        0.0188
      4 C         140.8381  140.4297  163.9040 C.3     1  UNL1        0.0721
      5 C         141.5353  141.6947  164.3085 C.3     1  UNL1        0.0173
      6 C         140.9552  142.5583  165.3889 C.3     1  UNL1        0.0014
      7 C         141.3852  142.3679  166.8133 C.3     1  UNL1        0.0000
      8 C         142.5448  141.4719  167.1332 C.3     1  UNL1        0.0000
      9 C         143.0152  138.9190  167.0245 C.3     1  UNL1        0.0000
     10 C         142.3007  140.0830  167.6447 C.3     1  UNL1        0.0000
     11 C         142.9597  139.5959  162.6573 C.3     1  UNL1        0.0721
     12 C         144.1990  139.0747  163.3225 C.3     1  UNL1        0.0177
     13 C         145.0085  139.9734  164.2097 C.3     1  UNL1        0.0061
     14 C         145.6621  141.1979  163.6411 C.3     1  UNL1        0.0264
     15 C         144.9720  142.5267  163.7309 C.ar    1  UNL1       -0.0222
     16 C         144.8278  143.2087  165.0590 C.ar    1  UNL1       -0.0043
     17 C         144.1377  144.5375  165.1488 C.ar    1  UNL1       -0.0003
     18 C         143.5917  145.1842  163.9104 C.ar    1  UNL1       -0.0000
     19 C         143.7358  144.5022  162.5823 C.ar    1  UNL1       -0.0003
     20 C         144.4260  143.1734  162.4925 C.ar    1  UNL1       -0.0043
@<TRIPOS>BOND
     1     9    10    1
     2    10     8    1
     3     8     7    1
     4     7     6    1
     5     6     5    1
     6     5     4    1
     7     4     1    1
     8     1     2    1
     9     2     3    1
    10     1    11    1
    11    11    12    1
    12    12    13    1
    13    13    14    1
    14    14    15    1
    15    15    16   ar
    16    16    17   ar
    17    17    18   ar
    18    18    19   ar
    19    19    20   ar
    20    20    15   ar
@<TRIPOS>MOLECULE
*****
 20 20 0 0 0
SMALL
GASTEIGER

@<TRIPOS>ATOM
      1 N         138.4772  140.4541  163.2156 N.3     1  UNL1       -0.2727
      2 C         139.3193  140.3686  161.9773 C.3     1  UNL1        0.0721
      3 C         140.7902  140.6537  162.0495 C.3     1  UNL1        0.0188
      4 C         137.5185  141.5940  163.3934 C.3     1  UNL1        0.0721
      5 C         138.0273  143.0048  163.4191 C.3     1  UNL1        0.0173
      6 C         138.1499  143.7343  164.7240 C.3     1  UNL1        0.0014
      7 C         139.4651  143.7666  165.4445 C.3     1  UNL1        0.0000
      8 C         140.6728  143.1229  164.8303 C.3     1  UNL1        0.0000
      9 C         142.7395  141.6246  165.3140 C.3     1  UNL1        0.0000
     10 C         141.8557  142.7783  165.6857 C.3     1  UNL1        0.0000
     11 C         138.5936  139.3997  164.2761 C.3     1  UNL1        0.0721
     12 C         139.5654  139.5757  165.4053 C.3     1  UNL1        0.0177
     13 C         139.1424  140.2910  166.6541 C.3     1  UNL1        0.0061
     14 C         139.7775  139.9449  167.9682 C.3     1  UNL1        0.0264
     15 C         140.7526  140.8919  168.6024 C.ar    1  UNL1       -0.0222
     16 C         142.1784  140.4739  168.8083 C.ar    1  UNL1       -0.0043
     17 C         143.1535  141.4209  169.4425 C.ar    1  UNL1       -0.0003
     18 C         142.7029  142.7859  169.8709 C.ar    1  UNL1       -0.0000
     19 C         141.2772  143.2039  169.6651 C.ar    1  UNL1       -0.0003
     20 C         140.3020  142.2569  169.0308 C.ar    1  UNL1       -0.0043
@<TRIPOS>BOND
     1     9    10    1
     2    10     8    1
     3     8     7    1
     4     7     6    1
     5     6     5    1
     6     5     4    1
     7     4     1    1
     8     1     2    1
     9     2     3    1
    10     1    11    1
    11    11    12    1
    12    12    13    1
    13    13    14    1
    14    14    15    1
    15    15    16   ar
    16    16    17   ar
    17    17    18   ar
    18    18    19   ar
    19    19    20   ar
    20    20    15   ar
@<TRIPOS>MOLECULE
*****
 20 20 0 0 0
SMALL
GASTEIGER

@<TRIPOS>ATOM
      1 N         140.8086  144.3232  164.0222 N.3     1  UNL1       -0.2727
      2 C         141.9945  144.8335  163.2586 C.3     1  UNL1        0.0721
      3 C         143.3048  145.0407  163.9586 C.3     1  UNL1        0.0188
      4 C         141.0096  143.4316  165.2117 C.3     1  UNL1        0.0721
      5 C         141.3713  141.9892  165.0152 C.3     1  UNL1        0.0173
      6 C         141.2781  141.3716  163.6514 C.3     1  UNL1        0.0014
      7 C         142.5247  140.9458  162.9341 C.3     1  UNL1        0.0000
      8 C         143.3480  139.8120  163.4696 C.3     1  UNL1        0.0000
      9 C         142.7727  138.3541  165.5417 C.3     1  UNL1        0.0000
     10 C         142.6740  138.6127  164.0674 C.3     1  UNL1        0.0000
     11 C         139.4217  144.7043  163.5965 C.3     1  UNL1        0.0721
     12 C         138.5445  143.6987  162.9114 C.3     1  UNL1        0.0177
     13 C         137.7278  142.7386  163.7244 C.3     1  UNL1        0.0061
     14 C         137.3843  141.3884  163.1685 C.3     1  UNL1        0.0264
     15 C         137.9828  140.1535  163.7742 C.ar    1  UNL1       -0.0222
     16 C         138.1505  140.0532  165.2614 C.ar    1  UNL1       -0.0043
     17 C         138.7491  138.8183  165.8670 C.ar    1  UNL1       -0.0003
     18 C         139.1800  137.6838  164.9855 C.ar    1  UNL1       -0.0000
     19 C         139.0123  137.7842  163.4983 C.ar    1  UNL1       -0.0003
     20 C         138.4137  139.0190  162.8926 C.ar    1  UNL1       -0.0043
@<TRIPOS>BOND
     1     9    10    1
     2    10     8    1
     3     8     7    1
     4     7     6    1
     5     6     5    1
     6     5     4    1
     7     4     1    1
     8     1     2    1
     9     2     3    1
    10     1    11    1
    11    11    12    1
    12    12    13    1
    13    13    14    1
    14    14    15    1
    15    15    16   ar
    16    16    17   ar
    17    17    18   ar
    18    18    19   ar
    19    19    20   ar
    20    20    15   ar
