@<TRIPOS>MOLECULE
*****
 36 40 0 0 0
SMALL
GASTEIGER

@<TRIPOS>ATOM
      1 C         141.0806  139.4120  159.8569 C.ar    1  UNL1        0.1233
      2 C         141.2073  138.9784  161.2873 C.ar    1  UNL1        0.1180
      3 N         141.0423  140.1904  162.1555 N.ar    1  UNL1       -0.2233
      4 N         140.8135  141.3731  161.2617 N.ar    1  UNL1       -0.0634
      5 N         140.8372  140.8920  159.8411 N.ar    1  UNL1       -0.1287
      6 C         141.0964  140.2153  163.6543 C.3     1  UNL1        0.1834
      7 C         142.4212  140.5875  164.2515 C.3     1  UNL1        0.0402
      8 C         142.7953  140.7011  165.6997 C.3     1  UNL1        0.0496
      9 C         141.9372  140.4705  166.9082 C.ar    1  UNL1        0.0727
     10 N         142.7062  140.6926  168.1768 N.ar    1  UNL1       -0.2469
     11 C         142.0311  140.5137  169.5042 C.ar    1  UNL1        0.0985
     12 C         140.5869  140.1126  169.5631 C.ar    1  UNL1        0.0219
     13 C         139.8179  139.8905  168.2945 C.ar    1  UNL1        0.0177
     14 C         140.4930  140.0694  166.9671 C.ar    1  UNL1        0.0677
     15 N         139.5503  139.7999  165.8320 N.am    1  UNL1       -0.2477
     16 C         139.8187  139.8648  164.3576 C.2     1  UNL1        0.2520
     17 O         138.7691  139.5662  163.3285 O.2     1  UNL1       -0.2724
     18 C         138.1543  139.4144  166.2229 C.3     1  UNL1        0.2017
     19 C         137.8438  137.9938  166.5909 C.3     1  UNL1        0.4160
     20 F         137.5332  136.5731  166.9588 F       1  UNL1       -0.1682
     21 F         138.7484  137.3428  165.5869 F       1  UNL1       -0.1682
     22 F         136.8942  138.4751  167.6477 F       1  UNL1       -0.1682
     23 C         140.0409  137.2538  156.6929 C.ar    1  UNL1        0.1547
     24 C         139.9416  138.1439  157.8961 C.ar    1  UNL1        0.0400
     25 C         141.1798  138.5219  158.6537 C.ar    1  UNL1        0.0241
     26 C         142.5174  138.0097  158.2080 C.ar    1  UNL1        0.0033
     27 C         142.6166  137.1195  157.0048 C.ar    1  UNL1        0.0207
     28 C         141.3784  136.7416  156.2472 C.ar    1  UNL1        0.0994
     29 N         141.4778  135.8514  155.0440 N.ar    1  UNL1       -0.2839
     30 C         141.7678  136.2949  153.6407 C.ar    1  UNL1        0.1826
     31 N         141.7738  135.0791  152.7623 N.ar    1  UNL1       -0.2280
     32 C         141.4874  133.8842  153.6225 C.ar    1  UNL1        0.0786
     33 C         141.3994  132.4617  153.1549 C.3     1  UNL1        0.0538
     34 C         141.3044  134.3615  155.0328 C.ar    1  UNL1        0.0963
     35 C         138.3819  137.6763  154.7386 C.3     1  UNL1        0.2525
     36 O         138.8026  136.8759  155.9354 O.3     1  UNL1       -0.4700
@<TRIPOS>BOND
     1    35    36    1
     2    36    23    1
     3    23    24   ar
     4    24    25   ar
     5    25     1    1
     6     1     2   ar
     7     2     3   ar
     8     3     6    1
     9     6     7    1
    10     7     8    1
    11     8     9    1
    12     9    10   ar
    13    10    11   ar
    14    11    12   ar
    15    12    13   ar
    16    13    14   ar
    17    14    15    1
    18    15    18    1
    19    18    19    1
    20    19    20    1
    21    19    21    1
    22    19    22    1
    23    15    16   am
    24    16    17    2
    25     3     4   ar
    26     4     5   ar
    27    25    26   ar
    28    26    27   ar
    29    27    28   ar
    30    28    29    1
    31    29    30   ar
    32    30    31   ar
    33    31    32   ar
    34    32    33    1
    35    32    34   ar
    36    28    23   ar
    37    34    29   ar
    38     5     1   ar
    39    16     6    1
    40    14     9   ar
@<TRIPOS>MOLECULE
*****
 36 40 0 0 0
SMALL
GASTEIGER

@<TRIPOS>ATOM
      1 C         141.1554  142.4743  160.5963 C.ar    1  UNL1        0.1233
      2 C         140.9005  142.6862  162.0593 C.ar    1  UNL1        0.1180
      3 N         141.3153  141.4418  162.7870 N.ar    1  UNL1       -0.2233
      4 N         141.8265  140.4610  161.7738 N.ar    1  UNL1       -0.0634
      5 N         141.7277  141.0991  160.4199 N.ar    1  UNL1       -0.1287
      6 C         141.2332  141.2177  164.2679 C.3     1  UNL1        0.1834
      7 C         142.4467  141.6160  165.0546 C.3     1  UNL1        0.0402
      8 C         142.6752  141.5198  166.5340 C.3     1  UNL1        0.0496
      9 C         141.7467  141.0018  167.5921 C.ar    1  UNL1        0.0727
     10 N         142.3688  141.0826  168.9545 N.ar    1  UNL1       -0.2469
     11 C         141.6046  140.6136  170.1570 C.ar    1  UNL1        0.0985
     12 C         140.2182  140.0637  169.9970 C.ar    1  UNL1        0.0219
     13 C         139.5961  139.9829  168.6345 C.ar    1  UNL1        0.0177
     14 C         140.3603  140.4519  167.4321 C.ar    1  UNL1        0.0677
     15 N         139.5601  140.2843  166.1744 N.am    1  UNL1       -0.2477
     16 C         139.9485  140.6251  164.7663 C.2     1  UNL1        0.2520
     17 O         139.0366  140.4002  163.5967 O.2     1  UNL1       -0.2724
     18 C         138.1902  139.6983  166.3480 C.3     1  UNL1        0.2017
     19 C         138.0171  138.2113  166.4435 C.3     1  UNL1        0.4160
     20 F         137.8440  136.7244  166.5389 F       1  UNL1       -0.1682
     21 F         139.0505  137.8409  165.4212 F       1  UNL1       -0.1682
     22 F         136.9547  138.4019  167.4851 F       1  UNL1       -0.1682
     23 C         139.5859  144.1507  157.3596 C.ar    1  UNL1        0.1547
     24 C         139.8559  143.1610  158.4539 C.ar    1  UNL1        0.0400
     25 C         140.8853  143.4640  159.5020 C.ar    1  UNL1        0.0241
     26 C         141.6448  144.7567  159.4557 C.ar    1  UNL1        0.0033
     27 C         141.3747  145.7464  158.3614 C.ar    1  UNL1        0.0207
     28 C         140.3454  145.4434  157.3134 C.ar    1  UNL1        0.0994
     29 N         140.0753  146.4331  156.2190 N.ar    1  UNL1       -0.2839
     30 C         138.9892  147.4676  156.2140 C.ar    1  UNL1        0.1826
     31 N         139.0867  148.2359  154.9294 N.ar    1  UNL1       -0.2280
     32 C         140.2331  147.6763  154.1405 C.ar    1  UNL1        0.0786
     33 C         140.6886  148.1480  152.7914 C.3     1  UNL1        0.0538
     34 C         140.8442  146.5621  154.9374 C.ar    1  UNL1        0.0963
     35 C         138.5539  142.5132  155.6265 C.3     1  UNL1        0.2525
     36 O         138.5565  143.8476  156.3116 O.3     1  UNL1       -0.4700
@<TRIPOS>BOND
     1    35    36    1
     2    36    23    1
     3    23    24   ar
     4    24    25   ar
     5    25     1    1
     6     1     2   ar
     7     2     3   ar
     8     3     6    1
     9     6     7    1
    10     7     8    1
    11     8     9    1
    12     9    10   ar
    13    10    11   ar
    14    11    12   ar
    15    12    13   ar
    16    13    14   ar
    17    14    15    1
    18    15    18    1
    19    18    19    1
    20    19    20    1
    21    19    21    1
    22    19    22    1
    23    15    16   am
    24    16    17    2
    25     3     4   ar
    26     4     5   ar
    27    25    26   ar
    28    26    27   ar
    29    27    28   ar
    30    28    29    1
    31    29    30   ar
    32    30    31   ar
    33    31    32   ar
    34    32    33    1
    35    32    34   ar
    36    28    23   ar
    37    34    29   ar
    38     5     1   ar
    39    16     6    1
    40    14     9   ar
@<TRIPOS>MOLECULE
*****
 36 40 0 0 0
SMALL
GASTEIGER

@<TRIPOS>ATOM
      1 C         142.0573  138.6206  159.4199 C.ar    1  UNL1        0.1233
      2 C         141.8295  138.2292  160.8499 C.ar    1  UNL1        0.1180
      3 N         142.0372  139.4459  161.7022 N.ar    1  UNL1       -0.2233
      4 N         142.3934  140.5893  160.7989 N.ar    1  UNL1       -0.0634
      5 N         142.4058  140.0792  159.3884 N.ar    1  UNL1       -0.1287
      6 C         141.9110  139.5083  163.1956 C.3     1  UNL1        0.1834
      7 C         143.1332  139.1112  163.9692 C.3     1  UNL1        0.0402
      8 C         143.3254  139.0673  165.4562 C.3     1  UNL1        0.0496
      9 C         142.3430  139.4096  166.5368 C.ar    1  UNL1        0.0727
     10 N         142.9423  139.2282  167.8998 N.ar    1  UNL1       -0.2469
     11 C         142.1243  139.5177  169.1233 C.ar    1  UNL1        0.0985
     12 C         140.7070  139.9886  168.9838 C.ar    1  UNL1        0.0219
     13 C         140.1077  140.1700  167.6208 C.ar    1  UNL1        0.0177
     14 C         140.9257  139.8805  166.3973 C.ar    1  UNL1        0.0677
     15 N         140.1408  140.1253  165.1427 N.am    1  UNL1       -0.2477
     16 C         140.5792  139.9597  163.7178 C.2     1  UNL1        0.2520
     17 O         139.6772  140.2447  162.5537 O.2     1  UNL1       -0.2724
     18 C         138.7309  140.5982  165.3390 C.3     1  UNL1        0.2017
     19 C         138.3130  141.9444  164.8257 C.3     1  UNL1        0.4160
     20 F         137.8951  143.2904  164.3125 F       1  UNL1       -0.1682
     21 F         137.2472  141.4598  163.8881 F       1  UNL1       -0.1682
     22 F         139.3355  142.5979  165.7075 F       1  UNL1       -0.1682
     23 C         142.8864  135.7421  156.8167 C.ar    1  UNL1        0.1547
     24 C         142.9891  136.6499  158.0063 C.ar    1  UNL1        0.0400
     25 C         141.9546  137.7127  158.2302 C.ar    1  UNL1        0.0241
     26 C         140.8173  137.8677  157.2645 C.ar    1  UNL1        0.0033
     27 C         140.7146  136.9598  156.0749 C.ar    1  UNL1        0.0207
     28 C         141.7491  135.8971  155.8510 C.ar    1  UNL1        0.0994
     29 N         141.6463  134.9892  154.6613 N.ar    1  UNL1       -0.2839
     30 C         141.9046  135.3729  153.2344 C.ar    1  UNL1        0.1826
     31 N         141.6851  134.1591  152.3810 N.ar    1  UNL1       -0.2280
     32 C         141.2912  133.0252  153.2803 C.ar    1  UNL1        0.0786
     33 C         140.9766  131.6241  152.8466 C.3     1  UNL1        0.0538
     34 C         141.2672  133.5382  154.6897 C.ar    1  UNL1        0.0963
     35 C         144.0452  133.5383  157.5584 C.3     1  UNL1        0.2525
     36 O         143.9209  134.6793  156.5927 O.3     1  UNL1       -0.4700
@<TRIPOS>BOND
     1    35    36    1
     2    36    23    1
     3    23    24   ar
     4    24    25   ar
     5    25     1    1
     6     1     2   ar
     7     2     3   ar
     8     3     6    1
     9     6     7    1
    10     7     8    1
    11     8     9    1
    12     9    10   ar
    13    10    11   ar
    14    11    12   ar
    15    12    13   ar
    16    13    14   ar
    17    14    15    1
    18    15    18    1
    19    18    19    1
    20    19    20    1
    21    19    21    1
    22    19    22    1
    23    15    16   am
    24    16    17    2
    25     3     4   ar
    26     4     5   ar
    27    25    26   ar
    28    26    27   ar
    29    27    28   ar
    30    28    29    1
    31    29    30   ar
    32    30    31   ar
    33    31    32   ar
    34    32    33    1
    35    32    34   ar
    36    28    23   ar
    37    34    29   ar
    38     5     1   ar
    39    16     6    1
    40    14     9   ar
@<TRIPOS>MOLECULE
*****
 36 40 0 0 0
SMALL
GASTEIGER

@<TRIPOS>ATOM
      1 C         142.6954  137.6900  157.6094 C.ar    1  UNL1        0.1233
      2 C         141.9216  138.1590  158.8057 C.ar    1  UNL1        0.1180
      3 N         142.4889  139.4790  159.2364 N.ar    1  UNL1       -0.2233
      4 N         143.6134  139.8259  158.3063 N.ar    1  UNL1       -0.0634
      5 N         143.7411  138.7202  157.3007 N.ar    1  UNL1       -0.1287
      6 C         142.0150  140.3069  160.3941 C.3     1  UNL1        0.1834
      7 C         140.8248  141.1796  160.1259 C.3     1  UNL1        0.0402
      8 C         140.1196  142.1135  161.0643 C.3     1  UNL1        0.0496
      9 C         140.4303  142.4054  162.5025 C.ar    1  UNL1        0.0727
     10 N         139.4736  143.4073  163.0775 N.ar    1  UNL1       -0.2469
     11 C         139.6095  143.8392  164.5075 C.ar    1  UNL1        0.0985
     12 C         140.7022  143.2691  165.3625 C.ar    1  UNL1        0.0219
     13 C         141.6590  142.2672  164.7875 C.ar    1  UNL1        0.0177
     14 C         141.5230  141.8353  163.3575 C.ar    1  UNL1        0.0677
     15 N         142.5749  140.8327  162.9855 N.am    1  UNL1       -0.2477
     16 C         142.7938  140.1524  161.6667 C.2     1  UNL1        0.2520
     17 O         143.8972  139.1622  161.4385 O.2     1  UNL1       -0.2724
     18 C         143.5347  140.4611  164.0767 C.3     1  UNL1        0.2017
     19 C         144.9650  140.9071  164.0015 C.3     1  UNL1        0.4160
     20 F         146.3951  141.3531  163.9262 F       1  UNL1       -0.1682
     21 F         144.6913  142.3430  163.6648 F       1  UNL1       -0.1682
     22 F         145.4163  139.5152  164.3315 F       1  UNL1       -0.1682
     23 C         143.0670  133.9290  156.3983 C.ar    1  UNL1        0.1547
     24 C         143.2982  135.2043  157.1534 C.ar    1  UNL1        0.0400
     25 C         142.4643  136.4147  156.8543 C.ar    1  UNL1        0.0241
     26 C         141.3991  136.3498  155.8001 C.ar    1  UNL1        0.0033
     27 C         141.1680  135.0745  155.0450 C.ar    1  UNL1        0.0207
     28 C         142.0018  133.8642  155.3441 C.ar    1  UNL1        0.0994
     29 N         141.7706  132.5888  154.5889 N.ar    1  UNL1       -0.2839
     30 C         142.5039  132.1484  153.3567 C.ar    1  UNL1        0.1826
     31 N         141.9519  130.8175  152.9398 N.ar    1  UNL1       -0.2280
     32 C         140.8776  130.4353  153.9142 C.ar    1  UNL1        0.0786
     33 C         140.0590  129.1789  153.8761 C.3     1  UNL1        0.0538
     34 C         140.7655  131.5301  154.9335 C.ar    1  UNL1        0.0963
     35 C         144.8078  132.7092  157.8921 C.3     1  UNL1        0.2525
     36 O         143.9009  132.7186  156.6973 O.3     1  UNL1       -0.4700
@<TRIPOS>BOND
     1    35    36    1
     2    36    23    1
     3    23    24   ar
     4    24    25   ar
     5    25     1    1
     6     1     2   ar
     7     2     3   ar
     8     3     6    1
     9     6     7    1
    10     7     8    1
    11     8     9    1
    12     9    10   ar
    13    10    11   ar
    14    11    12   ar
    15    12    13   ar
    16    13    14   ar
    17    14    15    1
    18    15    18    1
    19    18    19    1
    20    19    20    1
    21    19    21    1
    22    19    22    1
    23    15    16   am
    24    16    17    2
    25     3     4   ar
    26     4     5   ar
    27    25    26   ar
    28    26    27   ar
    29    27    28   ar
    30    28    29    1
    31    29    30   ar
    32    30    31   ar
    33    31    32   ar
    34    32    33    1
    35    32    34   ar
    36    28    23   ar
    37    34    29   ar
    38     5     1   ar
    39    16     6    1
    40    14     9   ar
@<TRIPOS>MOLECULE
*****
 36 40 0 0 0
SMALL
GASTEIGER

@<TRIPOS>ATOM
      1 C         143.3254  139.7115  160.2811 C.ar    1  UNL1        0.1233
      2 C         143.2356  140.2512  161.6778 C.ar    1  UNL1        0.1180
      3 N         142.6420  139.1847  162.5496 N.ar    1  UNL1       -0.2233
      4 N         142.3648  137.9858  161.6918 N.ar    1  UNL1       -0.0634
      5 N         142.7871  138.3114  160.2897 N.ar    1  UNL1       -0.1287
      6 C         142.3728  139.2972  164.0210 C.3     1  UNL1        0.1834
      7 C         143.4626  138.7970  164.9221 C.3     1  UNL1        0.0402
      8 C         143.4981  138.7711  166.4215 C.3     1  UNL1        0.0496
      9 C         142.4526  139.2391  167.3900 C.ar    1  UNL1        0.0727
     10 N         142.8891  139.0318  168.8101 N.ar    1  UNL1       -0.2469
     11 C         141.9864  139.4340  169.9384 C.ar    1  UNL1        0.0985
     12 C         140.6471  140.0434  169.6468 C.ar    1  UNL1        0.0219
     13 C         140.2106  140.2506  168.2267 C.ar    1  UNL1        0.0177
     14 C         141.1134  139.8485  167.0984 C.ar    1  UNL1        0.0677
     15 N         140.4889  140.1404  165.7662 N.am    1  UNL1       -0.2477
     16 C         141.0493  139.8951  164.3966 C.2     1  UNL1        0.2520
     17 O         140.3041  140.2413  163.1417 O.2     1  UNL1       -0.2724
     18 C         139.1233  140.7596  165.8092 C.3     1  UNL1        0.2017
     19 C         138.9171  142.1570  165.3043 C.3     1  UNL1        0.4160
     20 F         138.7110  143.5543  164.7994 F       1  UNL1       -0.1682
     21 F         140.0328  142.7968  166.0762 F       1  UNL1       -0.1682
     22 F         137.7677  141.6839  164.4645 F       1  UNL1       -0.1682
     23 C         144.3749  140.5215  156.5406 C.ar    1  UNL1        0.1547
     24 C         143.8408  139.7896  157.7359 C.ar    1  UNL1        0.0400
     25 C         143.8595  140.4434  159.0857 C.ar    1  UNL1        0.0241
     26 C         144.4124  141.8292  159.2402 C.ar    1  UNL1        0.0033
     27 C         144.9465  142.5611  158.0448 C.ar    1  UNL1        0.0207
     28 C         144.9278  141.9073  156.6951 C.ar    1  UNL1        0.0994
     29 N         145.4620  142.6393  155.4996 N.ar    1  UNL1       -0.2839
     30 C         144.6421  143.3059  154.4350 C.ar    1  UNL1        0.1826
     31 N         145.5833  143.9117  153.4365 N.ar    1  UNL1       -0.2280
     32 C         146.9848  143.6197  153.8839 C.ar    1  UNL1        0.0786
     33 C         148.2408  144.0401  153.1799 C.3     1  UNL1        0.0538
     34 C         146.9099  142.8332  155.1591 C.ar    1  UNL1        0.0963
     35 C         144.8736  138.4692  155.0275 C.3     1  UNL1        0.2525
     36 O         144.3562  139.8676  155.1907 O.3     1  UNL1       -0.4700
@<TRIPOS>BOND
     1    35    36    1
     2    36    23    1
     3    23    24   ar
     4    24    25   ar
     5    25     1    1
     6     1     2   ar
     7     2     3   ar
     8     3     6    1
     9     6     7    1
    10     7     8    1
    11     8     9    1
    12     9    10   ar
    13    10    11   ar
    14    11    12   ar
    15    12    13   ar
    16    13    14   ar
    17    14    15    1
    18    15    18    1
    19    18    19    1
    20    19    20    1
    21    19    21    1
    22    19    22    1
    23    15    16   am
    24    16    17    2
    25     3     4   ar
    26     4     5   ar
    27    25    26   ar
    28    26    27   ar
    29    27    28   ar
    30    28    29    1
    31    29    30   ar
    32    30    31   ar
    33    31    32   ar
    34    32    33    1
    35    32    34   ar
    36    28    23   ar
    37    34    29   ar
    38     5     1   ar
    39    16     6    1
    40    14     9   ar
@<TRIPOS>MOLECULE
*****
 36 40 0 0 0
SMALL
GASTEIGER

@<TRIPOS>ATOM
      1 C         142.9043  137.1075  157.6388 C.ar    1  UNL1        0.1233
      2 C         142.6891  137.3344  159.1059 C.ar    1  UNL1        0.1180
      3 N         143.0189  138.7664  159.4068 N.ar    1  UNL1       -0.2233
      4 N         143.4379  139.4246  158.1257 N.ar    1  UNL1       -0.0634
      5 N         143.3670  138.3994  157.0330 N.ar    1  UNL1       -0.1287
      6 C         142.9431  139.4246  160.7525 C.3     1  UNL1        0.1834
      7 C         144.2424  139.9352  161.3014 C.3     1  UNL1        0.0402
      8 C         144.4974  140.6326  162.6047 C.3     1  UNL1        0.0496
      9 C         143.5162  140.9915  163.6811 C.ar    1  UNL1        0.0727
     10 N         144.1898  141.6864  164.8271 N.ar    1  UNL1       -0.2469
     11 C         143.3849  142.1316  166.0119 C.ar    1  UNL1        0.0985
     12 C         141.9063  141.8818  166.0507 C.ar    1  UNL1        0.0219
     13 C         141.2327  141.1869  164.9048 C.ar    1  UNL1        0.0177
     14 C         142.0377  140.7417  163.7199 C.ar    1  UNL1        0.0677
     15 N         141.1752  140.0714  162.6920 N.am    1  UNL1       -0.2477
     16 C         141.5780  139.4852  161.3714 C.2     1  UNL1        0.2520
     17 O         140.5972  138.8403  160.4375 O.2     1  UNL1       -0.2724
     18 C         139.7168  139.9744  163.0293 C.3     1  UNL1        0.2017
     19 C         139.0963  138.6351  163.2969 C.3     1  UNL1        0.4160
     20 F         138.4760  137.2959  163.5645 F       1  UNL1       -0.1682
     21 F         140.2149  138.0779  164.1266 F       1  UNL1       -0.1682
     22 F         137.8931  139.0321  162.4939 F       1  UNL1       -0.1682
     23 C         143.2200  133.2898  156.6022 C.ar    1  UNL1        0.1547
     24 C         143.4307  134.5815  157.3348 C.ar    1  UNL1        0.0400
     25 C         142.6936  135.8157  156.9062 C.ar    1  UNL1        0.0241
     26 C         141.7458  135.7579  155.7450 C.ar    1  UNL1        0.0033
     27 C         141.5352  134.4661  155.0124 C.ar    1  UNL1        0.0207
     28 C         142.2722  133.2320  155.4410 C.ar    1  UNL1        0.0994
     29 N         142.0615  131.9401  154.7083 N.ar    1  UNL1       -0.2839
     30 C         140.9019  131.0052  154.8852 C.ar    1  UNL1        0.1826
     31 N         141.0972  129.8437  153.9564 N.ar    1  UNL1       -0.2280
     32 C         142.3774  130.0607  153.2055 C.ar    1  UNL1        0.0786
     33 C         142.9595  129.1432  152.1714 C.3     1  UNL1        0.0538
     34 C         142.9734  131.3564  153.6702 C.ar    1  UNL1        0.0963
     35 C         145.1870  132.1740  157.8812 C.3     1  UNL1        0.2525
     36 O         143.9571  132.0556  157.0308 O.3     1  UNL1       -0.4700
@<TRIPOS>BOND
     1    35    36    1
     2    36    23    1
     3    23    24   ar
     4    24    25   ar
     5    25     1    1
     6     1     2   ar
     7     2     3   ar
     8     3     6    1
     9     6     7    1
    10     7     8    1
    11     8     9    1
    12     9    10   ar
    13    10    11   ar
    14    11    12   ar
    15    12    13   ar
    16    13    14   ar
    17    14    15    1
    18    15    18    1
    19    18    19    1
    20    19    20    1
    21    19    21    1
    22    19    22    1
    23    15    16   am
    24    16    17    2
    25     3     4   ar
    26     4     5   ar
    27    25    26   ar
    28    26    27   ar
    29    27    28   ar
    30    28    29    1
    31    29    30   ar
    32    30    31   ar
    33    31    32   ar
    34    32    33    1
    35    32    34   ar
    36    28    23   ar
    37    34    29   ar
    38     5     1   ar
    39    16     6    1
    40    14     9   ar
@<TRIPOS>MOLECULE
*****
 36 40 0 0 0
SMALL
GASTEIGER

@<TRIPOS>ATOM
      1 C         144.0563  142.3061  159.5263 C.ar    1  UNL1        0.1233
      2 C         144.4317  141.9713  160.9394 C.ar    1  UNL1        0.1180
      3 N         143.1810  141.9864  161.7674 N.ar    1  UNL1       -0.2233
      4 N         142.0326  142.3306  160.8659 N.ar    1  UNL1       -0.0634
      5 N         142.5735  142.5282  159.4808 N.ar    1  UNL1       -0.1287
      6 C         143.0940  141.7066  163.2385 C.3     1  UNL1        0.1834
      7 C         143.3756  142.8716  164.1403 C.3     1  UNL1        0.0402
      8 C         143.3696  142.9164  165.6397 C.3     1  UNL1        0.0496
      9 C         143.0806  141.8074  166.6074 C.ar    1  UNL1        0.0727
     10 N         143.1825  142.2790  168.0277 N.ar    1  UNL1       -0.2469
     11 C         142.9299  141.3227  169.1554 C.ar    1  UNL1        0.0985
     12 C         142.5755  139.8948  168.8628 C.ar    1  UNL1        0.0219
     13 C         142.4737  139.4233  167.4425 C.ar    1  UNL1        0.0177
     14 C         142.7262  140.3795  166.3148 C.ar    1  UNL1        0.0677
     15 N         142.5733  139.7081  164.9822 N.am    1  UNL1       -0.2477
     16 C         142.7369  140.2986  163.6131 C.2     1  UNL1        0.2520
     17 O         142.5510  139.4990  162.3577 O.2     1  UNL1       -0.2724
     18 C         142.2084  138.2538  165.0243 C.3     1  UNL1        0.2017
     19 C         140.8301  137.8145  164.6274 C.3     1  UNL1        0.4160
     20 F         139.4519  137.3753  164.2306 F       1  UNL1       -0.1682
     21 F         140.0746  138.7866  165.4844 F       1  UNL1       -0.1682
     22 F         141.4221  136.7812  163.7153 F       1  UNL1       -0.1682
     23 C         145.4935  142.0635  155.8351 C.ar    1  UNL1        0.1547
     24 C         144.5515  141.9676  156.9984 C.ar    1  UNL1        0.0400
     25 C         144.9982  142.4019  158.3629 C.ar    1  UNL1        0.0241
     26 C         146.3869  142.9321  158.5640 C.ar    1  UNL1        0.0033
     27 C         147.3288  143.0280  157.4006 C.ar    1  UNL1        0.0207
     28 C         146.8821  142.5937  156.0362 C.ar    1  UNL1        0.0994
     29 N         147.8242  142.6896  154.8727 N.ar    1  UNL1       -0.2839
     30 C         147.7446  143.6850  153.7535 C.ar    1  UNL1        0.1826
     31 N         148.8824  143.4175  152.8134 N.ar    1  UNL1       -0.2280
     32 C         149.6652  142.2567  153.3516 C.ar    1  UNL1        0.0786
     33 C         150.8874  141.6519  152.7268 C.3     1  UNL1        0.0538
     34 C         149.0112  141.8068  154.6244 C.ar    1  UNL1        0.0963
     35 C         145.2925  140.2218  154.0136 C.3     1  UNL1        0.2525
     36 O         145.0468  141.6292  154.4706 O.3     1  UNL1       -0.4700
@<TRIPOS>BOND
     1    35    36    1
     2    36    23    1
     3    23    24   ar
     4    24    25   ar
     5    25     1    1
     6     1     2   ar
     7     2     3   ar
     8     3     6    1
     9     6     7    1
    10     7     8    1
    11     8     9    1
    12     9    10   ar
    13    10    11   ar
    14    11    12   ar
    15    12    13   ar
    16    13    14   ar
    17    14    15    1
    18    15    18    1
    19    18    19    1
    20    19    20    1
    21    19    21    1
    22    19    22    1
    23    15    16   am
    24    16    17    2
    25     3     4   ar
    26     4     5   ar
    27    25    26   ar
    28    26    27   ar
    29    27    28   ar
    30    28    29    1
    31    29    30   ar
    32    30    31   ar
    33    31    32   ar
    34    32    33    1
    35    32    34   ar
    36    28    23   ar
    37    34    29   ar
    38     5     1   ar
    39    16     6    1
    40    14     9   ar
@<TRIPOS>MOLECULE
*****
 36 40 0 0 0
SMALL
GASTEIGER

@<TRIPOS>ATOM
      1 C         142.5166  138.9810  160.9885 C.ar    1  UNL1        0.1233
      2 C         141.5917  138.3808  159.9714 C.ar    1  UNL1        0.1180
      3 N         142.2861  138.4048  158.6420 N.ar    1  UNL1       -0.2233
      4 N         143.6402  139.0199  158.8375 N.ar    1  UNL1       -0.0634
      5 N         143.7826  139.3760  160.2877 N.ar    1  UNL1       -0.1287
      6 C         141.7250  137.9021  157.3450 C.3     1  UNL1        0.1834
      7 C         140.6166  138.7220  156.7540 C.3     1  UNL1        0.0402
      8 C         139.8560  138.4882  155.4825 C.3     1  UNL1        0.0496
      9 C         140.0158  137.3768  154.4879 C.ar    1  UNL1        0.0727
     10 N         139.0499  137.5174  153.3490 N.ar    1  UNL1       -0.2469
     11 C         139.0440  136.5060  152.2413 C.ar    1  UNL1        0.0985
     12 C         140.0040  135.3539  152.2726 C.ar    1  UNL1        0.0219
     13 C         140.9699  135.2132  153.4115 C.ar    1  UNL1        0.0177
     14 C         140.9758  136.2246  154.5192 C.ar    1  UNL1        0.0677
     15 N         142.0131  135.8994  155.5528 N.am    1  UNL1       -0.2477
     16 C         142.3466  136.6459  156.8104 C.2     1  UNL1        0.2520
     17 O         143.4193  136.1984  157.7586 O.2     1  UNL1       -0.2724
     18 C         142.8242  134.6643  155.2946 C.3     1  UNL1        0.2017
     19 C         142.7343  133.4981  156.2338 C.3     1  UNL1        0.4160
     20 F         142.6445  132.3320  157.1730 F       1  UNL1       -0.1682
     21 F         144.1595  133.5289  156.7005 F       1  UNL1       -0.1682
     22 F         141.2873  133.3238  155.8790 F       1  UNL1       -0.1682
     23 C         142.0208  140.6915  164.5350 C.ar    1  UNL1        0.1547
     24 C         142.3110  140.5170  163.0738 C.ar    1  UNL1        0.0400
     25 C         142.2263  139.1556  162.4497 C.ar    1  UNL1        0.0241
     26 C         141.8513  137.9688  163.2868 C.ar    1  UNL1        0.0033
     27 C         141.5610  138.1434  164.7481 C.ar    1  UNL1        0.0207
     28 C         141.6458  139.5047  165.3722 C.ar    1  UNL1        0.0994
     29 N         141.3555  139.6792  166.8335 N.ar    1  UNL1       -0.2839
     30 C         142.3417  139.5241  167.9530 C.ar    1  UNL1        0.1826
     31 N         141.6237  139.7885  169.2431 N.ar    1  UNL1       -0.2280
     32 C         140.1938  140.1070  168.9211 C.ar    1  UNL1        0.0786
     33 C         139.1184  140.4354  169.9139 C.3     1  UNL1        0.0538
     34 C         140.0280  140.0394  167.4318 C.ar    1  UNL1        0.0963
     35 C         143.4430  142.6382  165.5033 C.3     1  UNL1        0.2525
     36 O         142.1055  142.0529  165.1591 O.3     1  UNL1       -0.4700
@<TRIPOS>BOND
     1    35    36    1
     2    36    23    1
     3    23    24   ar
     4    24    25   ar
     5    25     1    1
     6     1     2   ar
     7     2     3   ar
     8     3     6    1
     9     6     7    1
    10     7     8    1
    11     8     9    1
    12     9    10   ar
    13    10    11   ar
    14    11    12   ar
    15    12    13   ar
    16    13    14   ar
    17    14    15    1
    18    15    18    1
    19    18    19    1
    20    19    20    1
    21    19    21    1
    22    19    22    1
    23    15    16   am
    24    16    17    2
    25     3     4   ar
    26     4     5   ar
    27    25    26   ar
    28    26    27   ar
    29    27    28   ar
    30    28    29    1
    31    29    30   ar
    32    30    31   ar
    33    31    32   ar
    34    32    33    1
    35    32    34   ar
    36    28    23   ar
    37    34    29   ar
    38     5     1   ar
    39    16     6    1
    40    14     9   ar
@<TRIPOS>MOLECULE
*****
 36 40 0 0 0
SMALL
GASTEIGER

@<TRIPOS>ATOM
      1 C         142.8628  139.4031  157.9955 C.ar    1  UNL1        0.1233
      2 C         142.0511  138.2377  157.5127 C.ar    1  UNL1        0.1180
      3 N         142.8039  137.5799  156.3945 N.ar    1  UNL1       -0.2233
      4 N         144.0809  138.3387  156.1861 N.ar    1  UNL1       -0.0634
      5 N         144.1173  139.4655  157.1756 N.ar    1  UNL1       -0.1287
      6 C         142.3581  136.3748  155.6205 C.3     1  UNL1        0.1834
      7 C         141.6529  136.6565  154.3268 C.3     1  UNL1        0.0402
      8 C         141.0919  135.6803  153.3358 C.3     1  UNL1        0.0496
      9 C         141.0974  134.1814  153.3934 C.ar    1  UNL1        0.0727
     10 N         140.4273  133.5843  152.1916 N.ar    1  UNL1       -0.2469
     11 C         140.3251  132.0943  152.0529 C.ar    1  UNL1        0.0985
     12 C         140.8930  131.2013  153.1160 C.ar    1  UNL1        0.0219
     13 C         141.5631  131.7984  154.3178 C.ar    1  UNL1        0.0177
     14 C         141.6652  133.2885  154.4565 C.ar    1  UNL1        0.0677
     15 N         142.3679  133.6740  155.7245 N.am    1  UNL1       -0.2477
     16 C         142.6763  135.0475  156.2426 C.2     1  UNL1        0.2520
     17 O         143.3922  135.2830  157.5394 O.2     1  UNL1       -0.2724
     18 C         142.8224  132.5353  156.5887 C.3     1  UNL1        0.2017
     19 C         144.2828  132.2092  156.6929 C.3     1  UNL1        0.4160
     20 F         145.7432  131.8830  156.7969 F       1  UNL1       -0.1682
     21 F         144.5081  131.9129  155.2398 F       1  UNL1       -0.1682
     22 F         144.2352  132.4676  158.1697 F       1  UNL1       -0.1682
     23 C         142.2628  142.7598  160.0257 C.ar    1  UNL1        0.1547
     24 C         142.6395  141.8218  158.9175 C.ar    1  UNL1        0.0400
     25 C         142.4861  140.3413  159.1036 C.ar    1  UNL1        0.0241
     26 C         141.9560  139.7989  160.3977 C.ar    1  UNL1        0.0033
     27 C         141.5793  140.7371  161.5058 C.ar    1  UNL1        0.0207
     28 C         141.7327  142.2175  161.3198 C.ar    1  UNL1        0.0994
     29 N         141.3560  143.1557  162.4280 N.ar    1  UNL1       -0.2839
     30 C         142.2881  144.0753  163.1599 C.ar    1  UNL1        0.1826
     31 N         141.4891  144.8268  164.1830 N.ar    1  UNL1       -0.2280
     32 C         140.0634  144.3718  164.0835 C.ar    1  UNL1        0.0786
     33 C         138.9205  144.8633  164.9215 C.3     1  UNL1        0.0538
     34 C         139.9810  143.3390  162.9989 C.ar    1  UNL1        0.0963
     35 C         141.2398  145.0689  159.4157 C.3     1  UNL1        0.2525
     36 O         142.4162  144.2404  159.8396 O.3     1  UNL1       -0.4700
@<TRIPOS>BOND
     1    35    36    1
     2    36    23    1
     3    23    24   ar
     4    24    25   ar
     5    25     1    1
     6     1     2   ar
     7     2     3   ar
     8     3     6    1
     9     6     7    1
    10     7     8    1
    11     8     9    1
    12     9    10   ar
    13    10    11   ar
    14    11    12   ar
    15    12    13   ar
    16    13    14   ar
    17    14    15    1
    18    15    18    1
    19    18    19    1
    20    19    20    1
    21    19    21    1
    22    19    22    1
    23    15    16   am
    24    16    17    2
    25     3     4   ar
    26     4     5   ar
    27    25    26   ar
    28    26    27   ar
    29    27    28   ar
    30    28    29    1
    31    29    30   ar
    32    30    31   ar
    33    31    32   ar
    34    32    33    1
    35    32    34   ar
    36    28    23   ar
    37    34    29   ar
    38     5     1   ar
    39    16     6    1
    40    14     9   ar
