@<TRIPOS>MOLECULE
*****
 31 32 0 0 0
SMALL
GASTEIGER

@<TRIPOS>ATOM
      1 C         141.7934  138.4799  163.1717 C.3     1  UNL1        0.1817
      2 C         141.1241  137.9825  161.9250 C.2     1  UNL1        0.2432
      3 O         139.7658  137.3509  162.0038 O.2     1  UNL1       -0.2732
      4 N         141.8130  138.1167  160.5993 N.am    1  UNL1       -0.3012
      5 C         143.1712  138.7482  160.5204 C.3     1  UNL1        0.1110
      6 C         143.8406  139.2456  161.7672 C.3     1  UNL1        0.1151
      7 N         143.1517  139.1114  163.0929 N.am    1  UNL1       -0.2692
      8 C         143.8211  139.6089  164.3397 C.2     1  UNL1        0.2274
      9 O         143.1322  139.4747  165.6654 O.2     1  UNL1       -0.2748
     10 H         141.3737  137.7902  159.7810 H       1  UNL1        0.1495
     11 C         141.1045  138.3457  164.4974 C.3     1  UNL1        0.1710
     12 O         140.0138  139.3032  164.8762 O.3     1  UNL1       -0.3562
     13 C         139.2238  140.1654  166.6460 C.3     1  UNL1        0.0296
     14 C         138.9765  138.8989  165.8814 C.3     1  UNL1        0.0931
     15 C         138.7292  137.6323  165.1167 C.3     1  UNL1        0.0296
     16 C         137.9391  138.4946  166.8866 C.3     1  UNL1        0.0296
     17 C         145.1793  140.2404  164.2608 C.3     1  UNL1        0.1010
     18 C         145.3149  141.6807  163.8639 C.3     1  UNL1        0.0644
     19 N         145.9491  142.0409  162.5532 N.3     1  UNL1       -0.3215
     20 H         146.2273  141.1897  162.0648 H       1  UNL1        0.1188
     21 H         146.7714  142.6206  162.7214 H       1  UNL1        0.1188
     22 C         144.8162  142.7606  164.7777 C.3     1  UNL1        0.0447
     23 C         143.4777  143.3916  164.5325 C.ar    1  UNL1        0.0090
     24 C         142.2810  142.9408  165.3165 C.ar    1  UNL1        0.0300
     25 C         140.9425  143.5719  165.0712 C.ar    1  UNL1        0.1672
     26 F         139.7457  143.1211  165.8551 F       1  UNL1       -0.2018
     27 C         140.8007  144.6539  164.0420 C.ar    1  UNL1        0.1696
     28 F         139.4623  145.2850  163.7968 F       1  UNL1       -0.2017
     29 C         141.9975  145.1048  163.2581 C.ar    1  UNL1        0.0612
     30 C         143.3359  144.4737  163.5033 C.ar    1  UNL1        0.1386
     31 F         144.5326  144.9245  162.7194 F       1  UNL1       -0.2044
@<TRIPOS>BOND
     1    13    14    1
     2    14    15    1
     3    14    16    1
     4    14    12    1
     5    12    11    1
     6     1    11    1
     7     1     2    1
     8     2     3    2
     9     2     4   am
    10     4     5    1
    11     5     6    1
    12     6     7    1
    13     7     8   am
    14     8     9    2
    15     8    17    1
    16    17    18    1
    17    18    19    1
    18    18    22    1
    19    22    23    1
    20    23    24   ar
    21    24    25   ar
    22    25    26    1
    23    25    27   ar
    24    27    28    1
    25    27    29   ar
    26    29    30   ar
    27    30    31    1
    28     7     1    1
    29    30    23   ar
    30     4    10    1
    31    19    20    1
    32    19    21    1
@<TRIPOS>MOLECULE
*****
 31 32 0 0 0
SMALL
GASTEIGER

@<TRIPOS>ATOM
      1 C         140.9595  143.4749  165.2561 C.3     1  UNL1        0.1817
      2 C         139.8930  144.3259  164.6327 C.2     1  UNL1        0.2432
      3 O         138.4976  144.3019  165.1825 O.2     1  UNL1       -0.2732
      4 N         140.2220  145.2008  163.4596 N.am    1  UNL1       -0.3012
      5 C         141.6174  145.2248  162.9099 C.3     1  UNL1        0.1110
      6 C         142.6838  144.3739  163.5332 C.3     1  UNL1        0.1151
      7 N         142.3548  143.4989  164.7064 N.am    1  UNL1       -0.2692
      8 C         143.4213  142.6480  165.3297 C.2     1  UNL1        0.2274
      9 O         143.0924  141.7730  166.5028 O.2     1  UNL1       -0.2748
     10 H         139.5221  145.7593  163.0505 H       1  UNL1        0.1495
     11 C         140.6305  142.6000  166.4292 C.3     1  UNL1        0.1710
     12 O         140.3490  143.2150  167.7680 O.3     1  UNL1       -0.3562
     13 C         140.4445  143.5581  169.8593 C.3     1  UNL1        0.0296
     14 C         140.2694  142.3484  168.9898 C.3     1  UNL1        0.0931
     15 C         140.0943  141.1387  168.1203 C.3     1  UNL1        0.0296
     16 C         140.1898  141.4818  170.2115 C.3     1  UNL1        0.0296
     17 C         144.8167  142.6720  164.7800 C.3     1  UNL1        0.1010
     18 C         145.2642  141.6072  163.8228 C.3     1  UNL1        0.0644
     19 N         145.7786  141.9866  162.4658 N.3     1  UNL1       -0.3215
     20 H         145.7543  143.0013  162.3645 H       1  UNL1        0.1188
     21 H         145.1928  141.5592  161.7484 H       1  UNL1        0.1188
     22 C         145.1973  140.1631  164.2227 C.3     1  UNL1        0.0447
     23 C         143.9638  139.3607  163.9318 C.ar    1  UNL1        0.0090
     24 C         143.4467  139.2627  162.5272 C.ar    1  UNL1        0.0300
     25 C         142.2131  138.4603  162.2364 C.ar    1  UNL1        0.1672
     26 F         141.6960  138.3624  160.8317 F       1  UNL1       -0.2018
     27 C         141.4967  137.7560  163.3501 C.ar    1  UNL1        0.1696
     28 F         140.2632  136.9536  163.0593 F       1  UNL1       -0.2017
     29 C         142.0138  137.8539  164.7548 C.ar    1  UNL1        0.0612
     30 C         143.2473  138.6563  165.0456 C.ar    1  UNL1        0.1386
     31 F         143.7644  138.7543  166.4503 F       1  UNL1       -0.2044
@<TRIPOS>BOND
     1    13    14    1
     2    14    15    1
     3    14    16    1
     4    14    12    1
     5    12    11    1
     6     1    11    1
     7     1     2    1
     8     2     3    2
     9     2     4   am
    10     4     5    1
    11     5     6    1
    12     6     7    1
    13     7     8   am
    14     8     9    2
    15     8    17    1
    16    17    18    1
    17    18    19    1
    18    18    22    1
    19    22    23    1
    20    23    24   ar
    21    24    25   ar
    22    25    26    1
    23    25    27   ar
    24    27    28    1
    25    27    29   ar
    26    29    30   ar
    27    30    31    1
    28     7     1    1
    29    30    23   ar
    30     4    10    1
    31    19    20    1
    32    19    21    1
@<TRIPOS>MOLECULE
*****
 31 32 0 0 0
SMALL
GASTEIGER

@<TRIPOS>ATOM
      1 C         141.0040  144.4054  163.5655 C.3     1  UNL1        0.1817
      2 C         141.2915  145.0507  162.2423 C.2     1  UNL1        0.2432
      3 O         140.1997  145.7672  161.5043 O.2     1  UNL1       -0.2732
      4 N         142.6708  144.9797  161.6572 N.am    1  UNL1       -0.3012
      5 C         143.7626  144.2633  162.3952 C.3     1  UNL1        0.1110
      6 C         143.4751  143.6179  163.7183 C.3     1  UNL1        0.1151
      7 N         142.0958  143.6890  164.3035 N.am    1  UNL1       -0.2692
      8 C         141.8083  143.0435  165.6267 C.2     1  UNL1        0.2274
      9 O         140.4290  143.1145  166.2118 O.2     1  UNL1       -0.2748
     10 H         142.8595  145.4033  160.7887 H       1  UNL1        0.1495
     11 C         139.6247  144.4764  164.1506 C.3     1  UNL1        0.1710
     12 O         138.4320  144.1498  163.3016 O.3     1  UNL1       -0.3562
     13 C         138.2425  142.8096  161.6682 C.3     1  UNL1        0.0296
     14 C         137.9907  142.7248  163.1445 C.3     1  UNL1        0.0931
     15 C         137.7389  142.6401  164.6208 C.3     1  UNL1        0.0296
     16 C         137.5494  141.2999  162.9875 C.3     1  UNL1        0.0296
     17 C         142.9001  142.3271  166.3647 C.3     1  UNL1        0.1010
     18 C         142.5816  141.5549  167.6107 C.3     1  UNL1        0.0644
     19 N         142.3568  142.2791  168.9049 N.3     1  UNL1       -0.3215
     20 H         142.4584  143.2829  168.7549 H       1  UNL1        0.1188
     21 H         143.0423  141.9670  169.5927 H       1  UNL1        0.1188
     22 C         142.4880  140.0586  167.5624 C.3     1  UNL1        0.0447
     23 C         141.5279  139.3974  166.6185 C.ar    1  UNL1        0.0090
     24 C         140.0591  139.6848  166.7193 C.ar    1  UNL1        0.0300
     25 C         139.0990  139.0235  165.7754 C.ar    1  UNL1        0.1672
     26 F         137.6303  139.3109  165.8761 F       1  UNL1       -0.2018
     27 C         139.6077  138.0748  164.7308 C.ar    1  UNL1        0.1696
     28 F         138.6476  137.4135  163.7869 F       1  UNL1       -0.2017
     29 C         141.0764  137.7874  164.6300 C.ar    1  UNL1        0.0612
     30 C         142.0365  138.4486  165.5738 C.ar    1  UNL1        0.1386
     31 F         143.5053  138.1612  165.4731 F       1  UNL1       -0.2044
@<TRIPOS>BOND
     1    13    14    1
     2    14    15    1
     3    14    16    1
     4    14    12    1
     5    12    11    1
     6     1    11    1
     7     1     2    1
     8     2     3    2
     9     2     4   am
    10     4     5    1
    11     5     6    1
    12     6     7    1
    13     7     8   am
    14     8     9    2
    15     8    17    1
    16    17    18    1
    17    18    19    1
    18    18    22    1
    19    22    23    1
    20    23    24   ar
    21    24    25   ar
    22    25    26    1
    23    25    27   ar
    24    27    28    1
    25    27    29   ar
    26    29    30   ar
    27    30    31    1
    28     7     1    1
    29    30    23   ar
    30     4    10    1
    31    19    20    1
    32    19    21    1
@<TRIPOS>MOLECULE
*****
 31 32 0 0 0
SMALL
GASTEIGER

@<TRIPOS>ATOM
      1 C         138.5367  141.6227  164.8167 C.3     1  UNL1        0.1817
      2 C         137.8748  142.3803  163.7041 C.2     1  UNL1        0.2432
      3 O         136.9430  141.6727  162.7654 O.2     1  UNL1       -0.2732
      4 N         138.1448  143.8455  163.5302 N.am    1  UNL1       -0.3012
      5 C         139.0766  144.5531  164.4688 C.3     1  UNL1        0.1110
      6 C         139.7384  143.7954  165.5814 C.3     1  UNL1        0.1151
      7 N         139.4685  142.3302  165.7553 N.am    1  UNL1       -0.2692
      8 C         140.1304  141.5726  166.8679 C.2     1  UNL1        0.2274
      9 O         139.8605  140.1073  167.0419 O.2     1  UNL1       -0.2748
     10 H         137.7103  144.3428  162.7999 H       1  UNL1        0.1495
     11 C         138.2667  140.1574  164.9906 C.3     1  UNL1        0.1710
     12 O         138.7466  139.1789  163.9600 O.3     1  UNL1       -0.3562
     13 C         138.9261  137.3867  165.0806 C.3     1  UNL1        0.0296
     14 C         139.8694  138.2385  164.2840 C.3     1  UNL1        0.0931
     15 C         140.8127  139.0904  163.4875 C.3     1  UNL1        0.0296
     16 C         140.9922  137.2982  164.6081 C.3     1  UNL1        0.0296
     17 C         141.0622  142.2801  167.8066 C.3     1  UNL1        0.1010
     18 C         142.5345  141.9970  167.7570 C.3     1  UNL1        0.0644
     19 N         143.4517  142.6158  168.7699 N.3     1  UNL1       -0.3215
     20 H         142.9092  143.1946  169.4110 H       1  UNL1        0.1188
     21 H         144.1442  143.1935  168.2933 H       1  UNL1        0.1188
     22 C         143.0895  141.0952  166.6946 C.3     1  UNL1        0.0447
     23 C         143.5655  141.6723  165.3946 C.ar    1  UNL1        0.0090
     24 C         143.4902  143.1517  165.1584 C.ar    1  UNL1        0.0300
     25 C         143.9663  143.7288  163.8582 C.ar    1  UNL1        0.1672
     26 F         143.8910  145.2081  163.6220 F       1  UNL1       -0.2018
     27 C         144.5177  142.8265  162.7943 C.ar    1  UNL1        0.1696
     28 F         144.9938  143.4037  161.4943 F       1  UNL1       -0.2017
     29 C         144.5930  141.3472  163.0305 C.ar    1  UNL1        0.0612
     30 C         144.1170  140.7700  164.3306 C.ar    1  UNL1        0.1386
     31 F         144.1923  139.2907  164.5668 F       1  UNL1       -0.2044
@<TRIPOS>BOND
     1    13    14    1
     2    14    15    1
     3    14    16    1
     4    14    12    1
     5    12    11    1
     6     1    11    1
     7     1     2    1
     8     2     3    2
     9     2     4   am
    10     4     5    1
    11     5     6    1
    12     6     7    1
    13     7     8   am
    14     8     9    2
    15     8    17    1
    16    17    18    1
    17    18    19    1
    18    18    22    1
    19    22    23    1
    20    23    24   ar
    21    24    25   ar
    22    25    26    1
    23    25    27   ar
    24    27    28    1
    25    27    29   ar
    26    29    30   ar
    27    30    31    1
    28     7     1    1
    29    30    23   ar
    30     4    10    1
    31    19    20    1
    32    19    21    1
@<TRIPOS>MOLECULE
*****
 31 32 0 0 0
SMALL
GASTEIGER

@<TRIPOS>ATOM
      1 C         142.3026  139.1139  163.5152 C.3     1  UNL1        0.1817
      2 C         142.1630  137.8920  162.6564 C.2     1  UNL1        0.2432
      3 O         141.1256  136.8593  162.9842 O.2     1  UNL1       -0.2732
      4 N         143.0608  137.7028  161.4697 N.am    1  UNL1       -0.3012
      5 C         144.0982  138.7354  161.1419 C.3     1  UNL1        0.1110
      6 C         144.2377  139.9573  162.0007 C.3     1  UNL1        0.1151
      7 N         143.3399  140.1465  163.1873 N.am    1  UNL1       -0.2692
      8 C         143.4796  141.3684  164.0462 C.2     1  UNL1        0.2274
      9 O         142.5818  141.5576  165.2328 O.2     1  UNL1       -0.2748
     10 H         142.9692  136.9009  160.9060 H       1  UNL1        0.1495
     11 C         141.4048  139.3031  164.7018 C.3     1  UNL1        0.1710
     12 O         139.9281  139.4778  164.5048 O.3     1  UNL1       -0.3562
     13 C         139.1839  140.6294  166.1235 C.3     1  UNL1        0.0296
     14 C         138.9843  139.2227  165.6424 C.3     1  UNL1        0.0931
     15 C         138.7846  137.8161  165.1613 C.3     1  UNL1        0.0296
     16 C         138.0404  138.9676  166.7800 C.3     1  UNL1        0.0296
     17 C         144.5169  142.4010  163.7183 C.3     1  UNL1        0.1010
     18 C         144.1991  143.5028  162.7512 C.3     1  UNL1        0.0644
     19 N         144.6752  143.4150  161.3315 N.3     1  UNL1       -0.3215
     20 H         145.1946  142.5471  161.2001 H       1  UNL1        0.1188
     21 H         145.2821  144.2088  161.1268 H       1  UNL1        0.1188
     22 C         143.4052  144.6922  163.2039 C.3     1  UNL1        0.0447
     23 C         141.9069  144.6622  163.1400 C.ar    1  UNL1        0.0090
     24 C         141.1043  144.5561  164.4027 C.ar    1  UNL1        0.0300
     25 C         139.6059  144.5261  164.3387 C.ar    1  UNL1        0.1672
     26 F         138.8033  144.4200  165.6015 F       1  UNL1       -0.2018
     27 C         138.9102  144.6023  163.0121 C.ar    1  UNL1        0.1696
     28 F         137.4119  144.5723  162.9481 F       1  UNL1       -0.2017
     29 C         139.7128  144.7084  161.7493 C.ar    1  UNL1        0.0612
     30 C         141.2111  144.7384  161.8132 C.ar    1  UNL1        0.1386
     31 F         142.0137  144.8445  160.5505 F       1  UNL1       -0.2044
@<TRIPOS>BOND
     1    13    14    1
     2    14    15    1
     3    14    16    1
     4    14    12    1
     5    12    11    1
     6     1    11    1
     7     1     2    1
     8     2     3    2
     9     2     4   am
    10     4     5    1
    11     5     6    1
    12     6     7    1
    13     7     8   am
    14     8     9    2
    15     8    17    1
    16    17    18    1
    17    18    19    1
    18    18    22    1
    19    22    23    1
    20    23    24   ar
    21    24    25   ar
    22    25    26    1
    23    25    27   ar
    24    27    28    1
    25    27    29   ar
    26    29    30   ar
    27    30    31    1
    28     7     1    1
    29    30    23   ar
    30     4    10    1
    31    19    20    1
    32    19    21    1
@<TRIPOS>MOLECULE
*****
 31 32 0 0 0
SMALL
GASTEIGER

@<TRIPOS>ATOM
      1 C         141.1613  144.2819  164.0576 C.3     1  UNL1        0.1817
      2 C         141.5292  145.1632  162.9009 C.2     1  UNL1        0.2432
      3 O         140.4797  146.0016  162.2333 O.2     1  UNL1       -0.2732
      4 N         142.9466  145.2062  162.4119 N.am    1  UNL1       -0.3012
      5 C         143.9961  144.3678  163.0795 C.3     1  UNL1        0.1110
      6 C         143.6282  143.4865  164.2361 C.3     1  UNL1        0.1151
      7 N         142.2108  143.4435  164.7252 N.am    1  UNL1       -0.2692
      8 C         141.8429  142.5621  165.8819 C.2     1  UNL1        0.2274
      9 O         140.4256  142.5192  166.3710 O.2     1  UNL1       -0.2748
     10 H         143.1880  145.7846  161.6527 H       1  UNL1        0.1495
     11 C         139.7439  144.2389  164.5467 C.3     1  UNL1        0.1710
     12 O         138.6136  144.1579  163.5640 O.3     1  UNL1       -0.3562
     13 C         137.6707  142.5394  164.5596 C.3     1  UNL1        0.0296
     14 C         138.0792  142.8207  163.1440 C.3     1  UNL1        0.0931
     15 C         138.4877  143.1021  161.7284 C.3     1  UNL1        0.0296
     16 C         137.5448  141.4836  162.7241 C.3     1  UNL1        0.0296
     17 C         142.8924  141.7238  166.5495 C.3     1  UNL1        0.1010
     18 C         142.5202  140.4097  167.1696 C.3     1  UNL1        0.0644
     19 N         141.5632  140.3694  168.3240 N.3     1  UNL1       -0.3215
     20 H         141.2676  141.3182  168.5538 H       1  UNL1        0.1188
     21 H         142.0233  139.9513  169.1327 H       1  UNL1        0.1188
     22 C         143.1049  139.1358  166.6354 C.3     1  UNL1        0.0447
     23 C         142.8905  138.7562  165.2002 C.ar    1  UNL1        0.0090
     24 C         141.6191  138.0767  164.7860 C.ar    1  UNL1        0.0300
     25 C         141.4047  137.6971  163.3507 C.ar    1  UNL1        0.1672
     26 F         140.1332  137.0175  162.9365 F       1  UNL1       -0.2018
     27 C         142.4618  137.9970  162.3297 C.ar    1  UNL1        0.1696
     28 F         142.2474  137.6174  160.8945 F       1  UNL1       -0.2017
     29 C         143.7333  138.6766  162.7439 C.ar    1  UNL1        0.0612
     30 C         143.9477  139.0562  164.1791 C.ar    1  UNL1        0.1386
     31 F         145.2191  139.7357  164.5933 F       1  UNL1       -0.2044
@<TRIPOS>BOND
     1    13    14    1
     2    14    15    1
     3    14    16    1
     4    14    12    1
     5    12    11    1
     6     1    11    1
     7     1     2    1
     8     2     3    2
     9     2     4   am
    10     4     5    1
    11     5     6    1
    12     6     7    1
    13     7     8   am
    14     8     9    2
    15     8    17    1
    16    17    18    1
    17    18    19    1
    18    18    22    1
    19    22    23    1
    20    23    24   ar
    21    24    25   ar
    22    25    26    1
    23    25    27   ar
    24    27    28    1
    25    27    29   ar
    26    29    30   ar
    27    30    31    1
    28     7     1    1
    29    30    23   ar
    30     4    10    1
    31    19    20    1
    32    19    21    1
@<TRIPOS>MOLECULE
*****
 31 32 0 0 0
SMALL
GASTEIGER

@<TRIPOS>ATOM
      1 C         142.1789  141.1885  165.5450 C.3     1  UNL1        0.1817
      2 C         143.0951  140.2185  164.8597 C.2     1  UNL1        0.2432
      3 O         143.7842  139.1486  165.6537 O.2     1  UNL1       -0.2732
      4 N         143.3223  140.3184  163.3803 N.am    1  UNL1       -0.3012
      5 C         142.6333  141.3883  162.5863 C.3     1  UNL1        0.1110
      6 C         141.7171  142.3583  163.2716 C.3     1  UNL1        0.1151
      7 N         141.4899  142.2584  164.7509 N.am    1  UNL1       -0.2692
      8 C         140.5737  143.2284  165.4362 C.2     1  UNL1        0.2274
      9 O         140.3465  143.1285  166.9156 O.2     1  UNL1       -0.2748
     10 H         143.9236  139.6818  162.9306 H       1  UNL1        0.1495
     11 C         141.9518  141.0886  167.0243 C.3     1  UNL1        0.1710
     12 O         141.2176  139.9105  167.5925 O.3     1  UNL1       -0.3562
     13 C         142.2776  139.5457  169.3934 C.3     1  UNL1        0.0296
     14 C         140.8572  139.8822  169.0483 C.3     1  UNL1        0.0931
     15 C         139.4368  140.2188  168.7032 C.3     1  UNL1        0.0296
     16 C         140.4968  139.8540  170.5041 C.3     1  UNL1        0.0296
     17 C         139.8846  144.2983  164.6422 C.3     1  UNL1        0.1010
     18 C         138.5963  143.9959  163.9359 C.3     1  UNL1        0.0644
     19 N         138.2058  144.7814  162.7191 N.3     1  UNL1       -0.3215
     20 H         138.9264  145.4740  162.5158 H       1  UNL1        0.1188
     21 H         137.3183  145.2543  162.8900 H       1  UNL1        0.1188
     22 C         137.6985  142.9082  164.4464 C.3     1  UNL1        0.0447
     23 C         137.9792  141.4773  164.0947 C.ar    1  UNL1        0.0090
     24 C         138.3441  140.4981  165.1708 C.ar    1  UNL1        0.0300
     25 C         138.6248  139.0672  164.8190 C.ar    1  UNL1        0.1672
     26 F         138.9898  138.0880  165.8951 F       1  UNL1       -0.2018
     27 C         138.5405  138.6155  163.3911 C.ar    1  UNL1        0.1696
     28 F         138.8212  137.1846  163.0394 F       1  UNL1       -0.2017
     29 C         138.1755  139.5947  162.3150 C.ar    1  UNL1        0.0612
     30 C         137.8949  141.0255  162.6668 C.ar    1  UNL1        0.1386
     31 F         137.5299  142.0047  161.5907 F       1  UNL1       -0.2044
@<TRIPOS>BOND
     1    13    14    1
     2    14    15    1
     3    14    16    1
     4    14    12    1
     5    12    11    1
     6     1    11    1
     7     1     2    1
     8     2     3    2
     9     2     4   am
    10     4     5    1
    11     5     6    1
    12     6     7    1
    13     7     8   am
    14     8     9    2
    15     8    17    1
    16    17    18    1
    17    18    19    1
    18    18    22    1
    19    22    23    1
    20    23    24   ar
    21    24    25   ar
    22    25    26    1
    23    25    27   ar
    24    27    28    1
    25    27    29   ar
    26    29    30   ar
    27    30    31    1
    28     7     1    1
    29    30    23   ar
    30     4    10    1
    31    19    20    1
    32    19    21    1
@<TRIPOS>MOLECULE
*****
 31 32 0 0 0
SMALL
GASTEIGER

@<TRIPOS>ATOM
      1 C         142.2105  140.0184  164.9527 C.3     1  UNL1        0.1817
      2 C         142.4231  138.6999  164.2698 C.2     1  UNL1        0.2432
      3 O         141.6988  137.4789  164.7544 O.2     1  UNL1       -0.2732
      4 N         143.3598  138.6023  163.1024 N.am    1  UNL1       -0.3012
      5 C         144.0840  139.8231  162.6177 C.3     1  UNL1        0.1110
      6 C         143.8715  141.1416  163.3006 C.3     1  UNL1        0.1151
      7 N         142.9348  141.2393  164.4680 N.am    1  UNL1       -0.2692
      8 C         142.7222  142.5579  165.1509 C.2     1  UNL1        0.2274
      9 O         141.7855  142.6555  166.3183 O.2     1  UNL1       -0.2748
     10 H         143.4993  137.7368  162.6542 H       1  UNL1        0.1495
     11 C         141.2738  140.1160  166.1201 C.3     1  UNL1        0.1710
     12 O         139.8168  140.3897  165.8918 O.3     1  UNL1       -0.3562
     13 C         139.1856  139.7965  167.8282 C.3     1  UNL1        0.0296
     14 C         138.7831  139.4437  166.4270 C.3     1  UNL1        0.0931
     15 C         138.3805  139.0908  165.0257 C.3     1  UNL1        0.0296
     16 C         137.7494  138.4976  166.9621 C.3     1  UNL1        0.0296
     17 C         143.4465  143.7788  164.6662 C.3     1  UNL1        0.1010
     18 C         142.8124  144.6683  163.6382 C.3     1  UNL1        0.0644
     19 N         143.5836  145.0701  162.4159 N.3     1  UNL1       -0.3215
     20 H         144.5132  144.6514  162.4475 H       1  UNL1        0.1188
     21 H         143.6691  146.0861  162.3866 H       1  UNL1        0.1188
     22 C         141.4073  145.1559  163.8324 C.3     1  UNL1        0.0447
     23 C         140.2540  144.2168  163.6381 C.ar    1  UNL1        0.0090
     24 C         140.3062  143.1783  162.5570 C.ar    1  UNL1        0.0300
     25 C         139.1528  142.2392  162.3628 C.ar    1  UNL1        0.1672
     26 F         139.2050  141.2007  161.2816 F       1  UNL1       -0.2018
     27 C         137.9472  142.3385  163.2497 C.ar    1  UNL1        0.1696
     28 F         136.7938  141.3993  163.0555 F       1  UNL1       -0.2017
     29 C         137.8949  143.3769  164.3308 C.ar    1  UNL1        0.0612
     30 C         139.0483  144.3161  164.5251 C.ar    1  UNL1        0.1386
     31 F         138.9961  145.3545  165.6062 F       1  UNL1       -0.2044
@<TRIPOS>BOND
     1    13    14    1
     2    14    15    1
     3    14    16    1
     4    14    12    1
     5    12    11    1
     6     1    11    1
     7     1     2    1
     8     2     3    2
     9     2     4   am
    10     4     5    1
    11     5     6    1
    12     6     7    1
    13     7     8   am
    14     8     9    2
    15     8    17    1
    16    17    18    1
    17    18    19    1
    18    18    22    1
    19    22    23    1
    20    23    24   ar
    21    24    25   ar
    22    25    26    1
    23    25    27   ar
    24    27    28    1
    25    27    29   ar
    26    29    30   ar
    27    30    31    1
    28     7     1    1
    29    30    23   ar
    30     4    10    1
    31    19    20    1
    32    19    21    1
@<TRIPOS>MOLECULE
*****
 31 32 0 0 0
SMALL
GASTEIGER

@<TRIPOS>ATOM
      1 C         139.1868  141.9668  163.2131 C.3     1  UNL1        0.1817
      2 C         138.1042  141.9131  162.1763 C.2     1  UNL1        0.2432
      3 O         137.6609  143.1706  161.4890 O.2     1  UNL1       -0.2732
      4 N         137.4649  140.6020  161.8267 N.am    1  UNL1       -0.3012
      5 C         137.9081  139.3446  162.5139 C.3     1  UNL1        0.1110
      6 C         138.9907  139.3982  163.5507 C.3     1  UNL1        0.1151
      7 N         139.6301  140.7093  163.9003 N.am    1  UNL1       -0.2692
      8 C         140.7127  140.7629  164.9372 C.2     1  UNL1        0.2274
      9 O         141.3521  142.0741  165.2868 O.2     1  UNL1       -0.2748
     10 H         136.7543  140.5668  161.1462 H       1  UNL1        0.1495
     11 C         139.8262  143.2779  163.5627 C.3     1  UNL1        0.1710
     12 O         140.6380  144.0133  162.5380 O.3     1  UNL1       -0.3562
     13 C         142.4483  143.1558  161.8396 C.3     1  UNL1        0.0296
     14 C         142.0959  144.2704  162.7796 C.3     1  UNL1        0.0931
     15 C         141.7436  145.3850  163.7196 C.3     1  UNL1        0.0296
     16 C         143.5539  144.5274  163.0213 C.3     1  UNL1        0.0296
     17 C         141.1560  139.5055  165.6244 C.3     1  UNL1        0.1010
     18 C         142.5171  139.4329  166.2507 C.3     1  UNL1        0.0644
     19 N         143.7319  139.2637  165.3872 N.3     1  UNL1       -0.3215
     20 H         143.4493  139.2164  164.4083 H       1  UNL1        0.1188
     21 H         144.2141  138.4023  165.6439 H       1  UNL1        0.1188
     22 C         142.6633  139.5295  167.7404 C.3     1  UNL1        0.0447
     23 C         141.7998  140.4772  168.5189 C.ar    1  UNL1        0.0090
     24 C         140.4565  140.0318  169.0161 C.ar    1  UNL1        0.0300
     25 C         139.5929  140.9796  169.7946 C.ar    1  UNL1        0.1672
     26 F         138.2496  140.5343  170.2918 F       1  UNL1       -0.2018
     27 C         140.0726  142.3727  170.0758 C.ar    1  UNL1        0.1696
     28 F         139.2091  143.3204  170.8543 F       1  UNL1       -0.2017
     29 C         141.4159  142.8180  169.5786 C.ar    1  UNL1        0.0612
     30 C         142.2795  141.8703  168.8002 C.ar    1  UNL1        0.1386
     31 F         143.6228  142.3157  168.3030 F       1  UNL1       -0.2044
@<TRIPOS>BOND
     1    13    14    1
     2    14    15    1
     3    14    16    1
     4    14    12    1
     5    12    11    1
     6     1    11    1
     7     1     2    1
     8     2     3    2
     9     2     4   am
    10     4     5    1
    11     5     6    1
    12     6     7    1
    13     7     8   am
    14     8     9    2
    15     8    17    1
    16    17    18    1
    17    18    19    1
    18    18    22    1
    19    22    23    1
    20    23    24   ar
    21    24    25   ar
    22    25    26    1
    23    25    27   ar
    24    27    28    1
    25    27    29   ar
    26    29    30   ar
    27    30    31    1
    28     7     1    1
    29    30    23   ar
    30     4    10    1
    31    19    20    1
    32    19    21    1
