@<TRIPOS>MOLECULE
*****
 35 38 0 0 0
SMALL
GASTEIGER

@<TRIPOS>ATOM
      1 C         144.0082  141.6357  157.6624 C.3     1  UNL1        0.0317
      2 C         144.0114  141.4322  159.1485 C.ar    1  UNL1       -0.0142
      3 C         144.4468  142.5436  160.0568 C.ar    1  UNL1       -0.0035
      4 C         144.4500  142.3401  161.5429 C.ar    1  UNL1        0.0042
      5 C         144.0178  141.0251  162.1207 C.ar    1  UNL1        0.0543
      6 C         143.5824  139.9137  161.2124 C.ar    1  UNL1        0.0124
      7 C         143.5792  140.1172  159.7263 C.ar    1  UNL1        0.0381
      8 C         144.0209  140.8216  163.6069 C.2     1  UNL1        0.2495
      9 O         145.1956  140.1674  164.2718 O.2     1  UNL1       -0.2698
     10 N         142.8494  141.2722  164.4281 N.am    1  UNL1       -0.2804
     11 H         142.0784  141.7016  163.9917 H       1  UNL1        0.1552
     12 C         142.8526  141.0687  165.9142 C.ar    1  UNL1        0.0506
     13 C         142.6230  139.7003  166.4843 C.ar    1  UNL1        0.0155
     14 C         142.6262  139.4968  167.9704 C.ar    1  UNL1        0.0127
     15 C         142.8590  140.6616  168.8865 C.ar    1  UNL1        0.0578
     16 CL        142.8621  140.4581  170.3726 Cl      1  UNL1       -0.0822
     17 C         143.0886  142.0299  168.3164 C.ar    1  UNL1        0.0127
     18 C         143.0854  142.2334  166.8302 C.ar    1  UNL1        0.0155
     19 C         143.1438  139.0056  158.8180 C.1     1  UNL1       -0.0600
     20 C         142.7084  137.8941  157.9098 C.1     1  UNL1       -0.0570
     21 C         142.2730  136.7826  157.0015 C.ar    1  UNL1        0.0731
     22 C         143.0760  135.5179  156.9256 C.ar    1  UNL1        0.0127
     23 C         142.6406  134.4064  156.0173 C.ar    1  UNL1        0.0229
     24 C         141.4023  134.5596  155.1850 C.ar    1  UNL1        0.1004
     25 N         140.5992  135.8242  155.2608 N.ar    1  UNL1       -0.2290
     26 C         141.0346  136.9358  156.1691 C.ar    1  UNL1        0.1330
     27 N         140.2316  138.2004  156.2450 N.pl3   1  UNL1       -0.3421
     28 H         139.4188  138.3009  155.6986 H       1  UNL1        0.1437
     29 H         140.5173  138.9300  156.8411 H       1  UNL1        0.1437
     30 C         143.4437  133.1417  155.9415 C.ar    1  UNL1        0.0412
     31 C         144.4506  132.6748  156.9504 C.ar    1  UNL1        0.1217
     32 N         145.0100  131.3664  156.4759 N.ar    1  UNL1       -0.1676
     33 N         144.3488  131.0247  155.1736 N.ar    1  UNL1       -0.2473
     34 C         144.6098  129.8007  154.3467 C.3     1  UNL1        0.1538
     35 C         143.3808  132.1219  154.8433 C.ar    1  UNL1        0.0967
@<TRIPOS>BOND
     1     1     2    1
     2     2     3   ar
     3     3     4   ar
     4     4     5   ar
     5     5     8    1
     6     8     9    2
     7     8    10   am
     8    10    12    1
     9    12    13   ar
    10    13    14   ar
    11    14    15   ar
    12    15    16    1
    13    15    17   ar
    14    17    18   ar
    15     5     6   ar
    16     6     7   ar
    17     7    19    1
    18    19    20    3
    19    20    21    1
    20    21    22   ar
    21    22    23   ar
    22    23    30    1
    23    30    31   ar
    24    31    32   ar
    25    32    33   ar
    26    33    34    1
    27    33    35   ar
    28    23    24   ar
    29    24    25   ar
    30    25    26   ar
    31    26    27    1
    32     7     2   ar
    33    26    21   ar
    34    18    12   ar
    35    35    30   ar
    36    10    11    1
    37    27    28    1
    38    27    29    1
@<TRIPOS>MOLECULE
*****
 35 38 0 0 0
SMALL
GASTEIGER

@<TRIPOS>ATOM
      1 C         137.7497  138.7444  161.7780 C.3     1  UNL1        0.0317
      2 C         139.0532  139.0234  161.0903 C.ar    1  UNL1       -0.0142
      3 C         139.1719  138.8426  159.6060 C.ar    1  UNL1       -0.0035
      4 C         140.4755  139.1216  158.9184 C.ar    1  UNL1        0.0042
      5 C         141.6603  139.5816  159.7150 C.ar    1  UNL1        0.0543
      6 C         141.5416  139.7624  161.1993 C.ar    1  UNL1        0.0124
      7 C         140.2380  139.4834  161.8869 C.ar    1  UNL1        0.0381
      8 C         142.9638  139.8606  159.0273 C.2     1  UNL1        0.2495
      9 O         144.2088  139.1451  159.4609 O.2     1  UNL1       -0.2698
     10 N         143.0224  140.8552  157.9061 N.am    1  UNL1       -0.2804
     11 H         142.2053  141.3249  157.6215 H       1  UNL1        0.1552
     12 C         144.3260  141.1343  157.2184 C.ar    1  UNL1        0.0506
     13 C         145.2146  142.2364  157.7142 C.ar    1  UNL1        0.0155
     14 C         146.5182  142.5155  157.0265 C.ar    1  UNL1        0.0127
     15 C         146.9331  141.6924  155.8431 C.ar    1  UNL1        0.0578
     16 CL        148.2366  141.9715  155.1554 Cl      1  UNL1       -0.0822
     17 C         146.0445  140.5904  155.3473 C.ar    1  UNL1        0.0127
     18 C         144.7409  140.3113  156.0350 C.ar    1  UNL1        0.0155
     19 C         140.1193  139.6643  163.3713 C.1     1  UNL1       -0.0600
     20 C         140.0007  139.8452  164.8556 C.1     1  UNL1       -0.0570
     21 C         139.8820  140.0261  166.3400 C.ar    1  UNL1        0.0731
     22 C         140.8547  140.9053  167.0685 C.ar    1  UNL1        0.0127
     23 C         140.7361  141.0862  168.5528 C.ar    1  UNL1        0.0229
     24 C         139.6447  140.3879  169.3085 C.ar    1  UNL1        0.1004
     25 N         138.6719  139.5087  168.5800 N.ar    1  UNL1       -0.2290
     26 C         138.7905  139.3278  167.0957 C.ar    1  UNL1        0.1330
     27 N         137.8178  138.4487  166.3672 N.pl3   1  UNL1       -0.3421
     28 H         137.1014  137.9904  166.8632 H       1  UNL1        0.1437
     29 H         137.8957  138.3299  165.3929 H       1  UNL1        0.1437
     30 C         141.7089  141.9654  169.2813 C.ar    1  UNL1        0.0412
     31 C         141.3574  143.1116  170.1828 C.ar    1  UNL1        0.1217
     32 N         142.6352  143.7073  170.6949 N.ar    1  UNL1       -0.1676
     33 N         143.7764  142.9293  170.1100 N.ar    1  UNL1       -0.2473
     34 C         145.2343  143.1832  170.3555 C.3     1  UNL1        0.1538
     35 C         143.2039  141.8527  169.2363 C.ar    1  UNL1        0.0967
@<TRIPOS>BOND
     1     1     2    1
     2     2     3   ar
     3     3     4   ar
     4     4     5   ar
     5     5     8    1
     6     8     9    2
     7     8    10   am
     8    10    12    1
     9    12    13   ar
    10    13    14   ar
    11    14    15   ar
    12    15    16    1
    13    15    17   ar
    14    17    18   ar
    15     5     6   ar
    16     6     7   ar
    17     7    19    1
    18    19    20    3
    19    20    21    1
    20    21    22   ar
    21    22    23   ar
    22    23    30    1
    23    30    31   ar
    24    31    32   ar
    25    32    33   ar
    26    33    34    1
    27    33    35   ar
    28    23    24   ar
    29    24    25   ar
    30    25    26   ar
    31    26    27    1
    32     7     2   ar
    33    26    21   ar
    34    18    12   ar
    35    35    30   ar
    36    10    11    1
    37    27    28    1
    38    27    29    1
@<TRIPOS>MOLECULE
*****
 35 38 0 0 0
SMALL
GASTEIGER

@<TRIPOS>ATOM
      1 C         140.9222  141.8367  158.1855 C.3     1  UNL1        0.0317
      2 C         141.5149  140.5264  157.7592 C.ar    1  UNL1       -0.0142
      3 C         142.0635  140.3671  156.3723 C.ar    1  UNL1       -0.0035
      4 C         142.6561  139.0568  155.9460 C.ar    1  UNL1        0.0042
      5 C         142.7003  137.9057  156.9066 C.ar    1  UNL1        0.0543
      6 C         142.1517  138.0649  158.2936 C.ar    1  UNL1        0.0124
      7 C         141.5590  139.3753  158.7199 C.ar    1  UNL1        0.0381
      8 C         143.2929  136.5953  156.4804 C.2     1  UNL1        0.2495
      9 O         144.5351  136.5720  155.6398 O.2     1  UNL1       -0.2698
     10 N         142.6435  135.3083  156.8946 N.am    1  UNL1       -0.2804
     11 H         141.8282  135.3235  157.4463 H       1  UNL1        0.1552
     12 C         143.2362  133.9979  156.4683 C.ar    1  UNL1        0.0506
     13 C         142.8127  133.3689  155.1740 C.ar    1  UNL1        0.0155
     14 C         143.4054  132.0586  154.7477 C.ar    1  UNL1        0.0127
     15 C         144.4215  131.3772  155.6157 C.ar    1  UNL1        0.0578
     16 CL        145.0142  130.0669  155.1894 Cl      1  UNL1       -0.0822
     17 C         144.8449  132.0062  156.9099 C.ar    1  UNL1        0.0127
     18 C         144.2522  133.3166  157.3362 C.ar    1  UNL1        0.0155
     19 C         141.0105  139.5344  160.1069 C.1     1  UNL1       -0.0600
     20 C         140.4619  139.6936  161.4939 C.1     1  UNL1       -0.0570
     21 C         139.9133  139.8528  162.8809 C.ar    1  UNL1        0.0731
     22 C         140.8174  139.6961  164.0676 C.ar    1  UNL1        0.0127
     23 C         140.2689  139.8552  165.4545 C.ar    1  UNL1        0.0229
     24 C         138.8164  140.1711  165.6549 C.ar    1  UNL1        0.1004
     25 N         137.9123  140.3279  164.4683 N.ar    1  UNL1       -0.2290
     26 C         138.4608  140.1687  163.0813 C.ar    1  UNL1        0.1330
     27 N         137.5567  140.3254  161.8947 N.pl3   1  UNL1       -0.3421
     28 H         136.6033  140.5327  162.0262 H       1  UNL1        0.1437
     29 H         137.9167  140.2209  160.9843 H       1  UNL1        0.1437
     30 C         141.1730  139.6985  166.6412 C.ar    1  UNL1        0.0412
     31 C         142.5268  139.0526  166.6390 C.ar    1  UNL1        0.1217
     32 N         143.0725  139.1150  168.0348 N.ar    1  UNL1       -0.1676
     33 N         142.0560  139.7996  168.8997 N.ar    1  UNL1       -0.2473
     34 C         142.1899  140.0752  170.3680 C.3     1  UNL1        0.1538
     35 C         140.8821  140.1602  168.0384 C.ar    1  UNL1        0.0967
@<TRIPOS>BOND
     1     1     2    1
     2     2     3   ar
     3     3     4   ar
     4     4     5   ar
     5     5     8    1
     6     8     9    2
     7     8    10   am
     8    10    12    1
     9    12    13   ar
    10    13    14   ar
    11    14    15   ar
    12    15    16    1
    13    15    17   ar
    14    17    18   ar
    15     5     6   ar
    16     6     7   ar
    17     7    19    1
    18    19    20    3
    19    20    21    1
    20    21    22   ar
    21    22    23   ar
    22    23    30    1
    23    30    31   ar
    24    31    32   ar
    25    32    33   ar
    26    33    34    1
    27    33    35   ar
    28    23    24   ar
    29    24    25   ar
    30    25    26   ar
    31    26    27    1
    32     7     2   ar
    33    26    21   ar
    34    18    12   ar
    35    35    30   ar
    36    10    11    1
    37    27    28    1
    38    27    29    1
@<TRIPOS>MOLECULE
*****
 35 38 0 0 0
SMALL
GASTEIGER

@<TRIPOS>ATOM
      1 C         143.2363  139.6079  156.6576 C.3     1  UNL1        0.0317
      2 C         143.2808  138.1106  156.5794 C.ar    1  UNL1       -0.0142
      3 C         143.8421  137.4397  155.3609 C.ar    1  UNL1       -0.0035
      4 C         143.8866  135.9424  155.2827 C.ar    1  UNL1        0.0042
      5 C         143.3700  135.1160  156.4229 C.ar    1  UNL1        0.0543
      6 C         142.8088  135.7870  157.6414 C.ar    1  UNL1        0.0124
      7 C         142.7642  137.2843  157.7197 C.ar    1  UNL1        0.0381
      8 C         143.4146  133.6187  156.3447 C.2     1  UNL1        0.2495
      9 O         142.1914  132.8523  155.9370 O.2     1  UNL1       -0.2698
     10 N         144.6824  132.8879  156.6741 N.am    1  UNL1       -0.2804
     11 H         145.4852  133.3910  156.9417 H       1  UNL1        0.1552
     12 C         144.7270  131.3906  156.5959 C.ar    1  UNL1        0.0506
     13 C         144.8521  130.7126  155.2637 C.ar    1  UNL1        0.0155
     14 C         144.8967  129.2153  155.1854 C.ar    1  UNL1        0.0127
     15 C         144.8161  128.3960  156.4394 C.ar    1  UNL1        0.0578
     16 CL        144.8607  126.8987  156.3612 Cl      1  UNL1       -0.0822
     17 C         144.6910  129.0741  157.7715 C.ar    1  UNL1        0.0127
     18 C         144.6464  130.5714  157.8498 C.ar    1  UNL1        0.0155
     19 C         142.2029  137.9553  158.9382 C.1     1  UNL1       -0.0600
     20 C         141.6417  138.6262  160.1568 C.1     1  UNL1       -0.0570
     21 C         141.0805  139.2971  161.3754 C.ar    1  UNL1        0.0731
     22 C         140.5412  140.6937  161.2812 C.ar    1  UNL1        0.0127
     23 C         139.9800  141.3647  162.4997 C.ar    1  UNL1        0.0229
     24 C         139.9580  140.6391  163.8123 C.ar    1  UNL1        0.1004
     25 N         140.4972  139.2425  163.9065 N.ar    1  UNL1       -0.2290
     26 C         141.0585  138.5716  162.6880 C.ar    1  UNL1        0.1330
     27 N         141.5977  137.1750  162.7821 N.pl3   1  UNL1       -0.3421
     28 H         141.5833  136.6988  163.6436 H       1  UNL1        0.1437
     29 H         141.9661  136.7346  161.9823 H       1  UNL1        0.1437
     30 C         139.4408  142.7612  162.4056 C.ar    1  UNL1        0.0412
     31 C         138.0290  143.1821  162.6878 C.ar    1  UNL1        0.1217
     32 N         137.9343  144.6631  162.4693 N.ar    1  UNL1       -0.1676
     33 N         139.2876  145.1576  162.0522 N.ar    1  UNL1       -0.2473
     34 C         139.6469  146.5780  161.7308 C.3     1  UNL1        0.1538
     35 C         140.2187  143.9821  162.0128 C.ar    1  UNL1        0.0967
@<TRIPOS>BOND
     1     1     2    1
     2     2     3   ar
     3     3     4   ar
     4     4     5   ar
     5     5     8    1
     6     8     9    2
     7     8    10   am
     8    10    12    1
     9    12    13   ar
    10    13    14   ar
    11    14    15   ar
    12    15    16    1
    13    15    17   ar
    14    17    18   ar
    15     5     6   ar
    16     6     7   ar
    17     7    19    1
    18    19    20    3
    19    20    21    1
    20    21    22   ar
    21    22    23   ar
    22    23    30    1
    23    30    31   ar
    24    31    32   ar
    25    32    33   ar
    26    33    34    1
    27    33    35   ar
    28    23    24   ar
    29    24    25   ar
    30    25    26   ar
    31    26    27    1
    32     7     2   ar
    33    26    21   ar
    34    18    12   ar
    35    35    30   ar
    36    10    11    1
    37    27    28    1
    38    27    29    1
@<TRIPOS>MOLECULE
*****
 35 38 0 0 0
SMALL
GASTEIGER

@<TRIPOS>ATOM
      1 C         142.1182  142.2100  160.0627 C.3     1  UNL1        0.0317
      2 C         142.3882  140.9854  159.2396 C.ar    1  UNL1       -0.0142
      3 C         143.0482  141.1136  157.8988 C.ar    1  UNL1       -0.0035
      4 C         143.3183  139.8891  157.0756 C.ar    1  UNL1        0.0042
      5 C         142.9284  138.5364  157.5933 C.ar    1  UNL1        0.0543
      6 C         142.2684  138.4082  158.9342 C.ar    1  UNL1        0.0124
      7 C         141.9983  139.6327  159.7573 C.ar    1  UNL1        0.0381
      8 C         143.1984  137.3118  156.7702 C.2     1  UNL1        0.2495
      9 O         144.3101  137.3152  155.7631 O.2     1  UNL1       -0.2698
     10 N         142.3568  136.0839  156.9540 N.am    1  UNL1       -0.2804
     11 H         141.6272  136.0817  157.6150 H       1  UNL1        0.1552
     12 C         142.6269  134.8594  156.1309 C.ar    1  UNL1        0.0506
     13 C         141.8488  134.6154  154.8718 C.ar    1  UNL1        0.0155
     14 C         142.1189  133.3908  154.0487 C.ar    1  UNL1        0.0127
     15 C         143.1670  132.4103  154.4846 C.ar    1  UNL1        0.0578
     16 CL        143.4371  131.1857  153.6614 Cl      1  UNL1       -0.0822
     17 C         143.9451  132.6543  155.7436 C.ar    1  UNL1        0.0127
     18 C         143.6750  133.8788  156.5667 C.ar    1  UNL1        0.0155
     19 C         141.3383  139.5045  161.0982 C.1     1  UNL1       -0.0600
     20 C         140.6783  139.3762  162.4391 C.1     1  UNL1       -0.0570
     21 C         140.0182  139.2480  163.7800 C.ar    1  UNL1        0.0731
     22 C         140.4021  140.1734  164.8964 C.ar    1  UNL1        0.0127
     23 C         139.7421  140.0452  166.2372 C.ar    1  UNL1        0.0229
     24 C         138.6983  138.9916  166.4617 C.ar    1  UNL1        0.1004
     25 N         138.3144  138.0663  165.3453 N.ar    1  UNL1       -0.2290
     26 C         138.9744  138.1944  164.0044 C.ar    1  UNL1        0.1330
     27 N         138.5906  137.2691  162.8880 N.pl3   1  UNL1       -0.3421
     28 H         137.9055  136.5776  163.0353 H       1  UNL1        0.1437
     29 H         139.0238  137.3532  162.0080 H       1  UNL1        0.1437
     30 C         140.1259  140.9705  167.3536 C.ar    1  UNL1        0.0412
     31 C         140.5472  142.4026  167.2064 C.ar    1  UNL1        0.1217
     32 N         140.8375  142.9435  168.5751 N.ar    1  UNL1       -0.1676
     33 N         140.5957  141.8456  169.5682 N.ar    1  UNL1       -0.2473
     34 C         140.7640  141.9490  171.0551 C.3     1  UNL1        0.1538
     35 C         140.1559  140.6263  168.8133 C.ar    1  UNL1        0.0967
@<TRIPOS>BOND
     1     1     2    1
     2     2     3   ar
     3     3     4   ar
     4     4     5   ar
     5     5     8    1
     6     8     9    2
     7     8    10   am
     8    10    12    1
     9    12    13   ar
    10    13    14   ar
    11    14    15   ar
    12    15    16    1
    13    15    17   ar
    14    17    18   ar
    15     5     6   ar
    16     6     7   ar
    17     7    19    1
    18    19    20    3
    19    20    21    1
    20    21    22   ar
    21    22    23   ar
    22    23    30    1
    23    30    31   ar
    24    31    32   ar
    25    32    33   ar
    26    33    34    1
    27    33    35   ar
    28    23    24   ar
    29    24    25   ar
    30    25    26   ar
    31    26    27    1
    32     7     2   ar
    33    26    21   ar
    34    18    12   ar
    35    35    30   ar
    36    10    11    1
    37    27    28    1
    38    27    29    1
@<TRIPOS>MOLECULE
*****
 35 38 0 0 0
SMALL
GASTEIGER

@<TRIPOS>ATOM
      1 C         138.9340  141.7899  158.7262 C.3     1  UNL1        0.0317
      2 C         139.3517  141.7499  160.1663 C.ar    1  UNL1       -0.0142
      3 C         138.6424  142.6016  161.1770 C.ar    1  UNL1       -0.0035
      4 C         139.0601  142.5616  162.6171 C.ar    1  UNL1        0.0042
      5 C         140.1872  141.6700  163.0465 C.ar    1  UNL1        0.0543
      6 C         140.8966  140.8183  162.0359 C.ar    1  UNL1        0.0124
      7 C         140.4789  140.8583  160.5958 C.ar    1  UNL1        0.0381
      8 C         140.6050  141.6300  164.4866 C.2     1  UNL1        0.2495
      9 O         142.0606  141.5696  164.8439 O.2     1  UNL1       -0.2698
     10 N         139.5672  141.6504  165.5694 N.am    1  UNL1       -0.2804
     11 H         138.6119  141.6901  165.3350 H       1  UNL1        0.1552
     12 C         139.9850  141.6104  167.0095 C.ar    1  UNL1        0.0506
     13 C         140.4595  142.8614  167.6878 C.ar    1  UNL1        0.0155
     14 C         140.8773  142.8214  169.1279 C.ar    1  UNL1        0.0127
     15 C         140.8205  141.5305  169.8897 C.ar    1  UNL1        0.0578
     16 CL        141.2383  141.4905  171.3298 Cl      1  UNL1       -0.0822
     17 C         140.3460  140.2796  169.2115 C.ar    1  UNL1        0.0127
     18 C         139.9283  140.3196  167.7714 C.ar    1  UNL1        0.0155
     19 C         141.1883  140.0065  159.5852 C.1     1  UNL1       -0.0600
     20 C         141.8977  139.1549  158.5745 C.1     1  UNL1       -0.0570
     21 C         142.6071  138.3032  157.5639 C.ar    1  UNL1        0.0731
     22 C         142.3028  136.8372  157.4726 C.ar    1  UNL1        0.0127
     23 C         143.0122  135.9855  156.4620 C.ar    1  UNL1        0.0229
     24 C         144.0258  136.5997  155.5427 C.ar    1  UNL1        0.1004
     25 N         144.3301  138.0657  155.6340 N.ar    1  UNL1       -0.2290
     26 C         143.6208  138.9174  156.6446 C.ar    1  UNL1        0.1330
     27 N         143.9250  140.3834  156.7359 N.pl3   1  UNL1       -0.3421
     28 H         144.5903  140.7865  156.1325 H       1  UNL1        0.1437
     29 H         143.4594  140.9424  157.3991 H       1  UNL1        0.1437
     30 C         142.7079  134.5195  156.3708 C.ar    1  UNL1        0.0412
     31 C         143.2358  133.4510  157.2817 C.ar    1  UNL1        0.1217
     32 N         142.6765  132.1358  156.8265 N.ar    1  UNL1       -0.1676
     33 N         141.8029  132.3913  155.6342 N.ar    1  UNL1       -0.2473
     34 C         141.0433  131.3555  154.8595 C.3     1  UNL1        0.1538
     35 C         141.8224  133.8645  155.3526 C.ar    1  UNL1        0.0967
@<TRIPOS>BOND
     1     1     2    1
     2     2     3   ar
     3     3     4   ar
     4     4     5   ar
     5     5     8    1
     6     8     9    2
     7     8    10   am
     8    10    12    1
     9    12    13   ar
    10    13    14   ar
    11    14    15   ar
    12    15    16    1
    13    15    17   ar
    14    17    18   ar
    15     5     6   ar
    16     6     7   ar
    17     7    19    1
    18    19    20    3
    19    20    21    1
    20    21    22   ar
    21    22    23   ar
    22    23    30    1
    23    30    31   ar
    24    31    32   ar
    25    32    33   ar
    26    33    34    1
    27    33    35   ar
    28    23    24   ar
    29    24    25   ar
    30    25    26   ar
    31    26    27    1
    32     7     2   ar
    33    26    21   ar
    34    18    12   ar
    35    35    30   ar
    36    10    11    1
    37    27    28    1
    38    27    29    1
@<TRIPOS>MOLECULE
*****
 35 38 0 0 0
SMALL
GASTEIGER

@<TRIPOS>ATOM
      1 C         144.3396  142.7216  158.8812 C.3     1  UNL1        0.0317
      2 C         143.8339  142.7509  160.2931 C.ar    1  UNL1       -0.0142
      3 C         144.6854  142.2157  161.4059 C.ar    1  UNL1       -0.0035
      4 C         144.1797  142.2450  162.8178 C.ar    1  UNL1        0.0042
      5 C         142.8226  142.8095  163.1169 C.ar    1  UNL1        0.0543
      6 C         141.9711  143.3447  162.0040 C.ar    1  UNL1        0.0124
      7 C         142.4768  143.3154  160.5921 C.ar    1  UNL1        0.0381
      8 C         142.3169  142.8387  164.5288 C.2     1  UNL1        0.2495
      9 O         141.3116  143.8716  164.9441 O.2     1  UNL1       -0.2698
     10 N         142.8166  141.8352  165.5253 N.am    1  UNL1       -0.2804
     11 H         143.4764  141.1573  165.2527 H       1  UNL1        0.1552
     12 C         142.3109  141.8644  166.9372 C.ar    1  UNL1        0.0506
     13 C         143.1954  142.3652  168.0404 C.ar    1  UNL1        0.0155
     14 C         142.6898  142.3945  169.4523 C.ar    1  UNL1        0.0127
     15 C         141.2996  141.9230  169.7610 C.ar    1  UNL1        0.0578
     16 CL        140.7939  141.9523  171.1729 Cl      1  UNL1       -0.0822
     17 C         140.4152  141.4223  168.6578 C.ar    1  UNL1        0.0127
     18 C         140.9208  141.3930  167.2460 C.ar    1  UNL1        0.0155
     19 C         141.6252  143.8507  159.4792 C.1     1  UNL1       -0.0600
     20 C         140.7737  144.3859  158.3665 C.1     1  UNL1       -0.0570
     21 C         139.9221  144.9212  157.2536 C.ar    1  UNL1        0.0731
     22 C         139.8827  146.3959  156.9821 C.ar    1  UNL1        0.0127
     23 C         139.0312  146.9312  155.8693 C.ar    1  UNL1        0.0229
     24 C         138.2191  145.9918  155.0280 C.ar    1  UNL1        0.1004
     25 N         138.2585  144.5170  155.2994 N.ar    1  UNL1       -0.2290
     26 C         139.1100  143.9818  156.4122 C.ar    1  UNL1        0.1330
     27 N         139.1494  142.5071  156.6837 N.pl3   1  UNL1       -0.3421
     28 H         138.6164  141.8905  156.1315 H       1  UNL1        0.1437
     29 H         139.7083  142.1557  157.4141 H       1  UNL1        0.1437
     30 C         138.9919  148.4059  155.5979 C.ar    1  UNL1        0.0412
     31 C         138.3834  149.4500  156.4864 C.ar    1  UNL1        0.1217
     32 N         138.5695  150.7848  155.8279 N.ar    1  UNL1       -0.1676
     33 N         139.2930  150.5657  154.5323 N.ar    1  UNL1       -0.2473
     34 C         139.6864  151.6299  153.5512 C.3     1  UNL1        0.1538
     35 C         139.5540  149.0954  154.3902 C.ar    1  UNL1        0.0967
@<TRIPOS>BOND
     1     1     2    1
     2     2     3   ar
     3     3     4   ar
     4     4     5   ar
     5     5     8    1
     6     8     9    2
     7     8    10   am
     8    10    12    1
     9    12    13   ar
    10    13    14   ar
    11    14    15   ar
    12    15    16    1
    13    15    17   ar
    14    17    18   ar
    15     5     6   ar
    16     6     7   ar
    17     7    19    1
    18    19    20    3
    19    20    21    1
    20    21    22   ar
    21    22    23   ar
    22    23    30    1
    23    30    31   ar
    24    31    32   ar
    25    32    33   ar
    26    33    34    1
    27    33    35   ar
    28    23    24   ar
    29    24    25   ar
    30    25    26   ar
    31    26    27    1
    32     7     2   ar
    33    26    21   ar
    34    18    12   ar
    35    35    30   ar
    36    10    11    1
    37    27    28    1
    38    27    29    1
@<TRIPOS>MOLECULE
*****
 35 38 0 0 0
SMALL
GASTEIGER

@<TRIPOS>ATOM
      1 C         143.8233  139.7033  156.0364 C.3     1  UNL1        0.0317
      2 C         143.2293  139.6341  157.4120 C.ar    1  UNL1       -0.0142
      3 C         143.2110  140.8549  158.2834 C.ar    1  UNL1       -0.0035
      4 C         142.6170  140.7857  159.6590 C.ar    1  UNL1        0.0042
      5 C         142.0412  139.4957  160.1632 C.ar    1  UNL1        0.0543
      6 C         142.0594  138.2749  159.2919 C.ar    1  UNL1        0.0124
      7 C         142.6535  138.3441  157.9162 C.ar    1  UNL1        0.0381
      8 C         141.4472  139.4265  161.5389 C.2     1  UNL1        0.2495
      9 O         142.2718  139.8089  162.7320 O.2     1  UNL1       -0.2698
     10 N         140.0285  138.9747  161.7213 N.am    1  UNL1       -0.2804
     11 H         139.4873  138.7237  160.9382 H       1  UNL1        0.1552
     12 C         139.4345  138.9055  163.0970 C.ar    1  UNL1        0.0506
     13 C         139.4594  137.6146  163.8606 C.ar    1  UNL1        0.0155
     14 C         138.8654  137.5454  165.2362 C.ar    1  UNL1        0.0127
     15 C         138.2465  138.7671  165.8482 C.ar    1  UNL1        0.0578
     16 CL        137.6524  138.6979  167.2238 Cl      1  UNL1       -0.0822
     17 C         138.2216  140.0579  165.0846 C.ar    1  UNL1        0.0127
     18 C         138.8156  140.1271  163.7090 C.ar    1  UNL1        0.0155
     19 C         142.6717  137.1232  157.0449 C.1     1  UNL1       -0.0600
     20 C         142.6898  135.9024  156.1736 C.1     1  UNL1       -0.0570
     21 C         142.7080  134.6816  155.3022 C.ar    1  UNL1        0.0731
     22 C         143.3200  133.4086  155.8073 C.ar    1  UNL1        0.0127
     23 C         143.3382  132.1878  154.9361 C.ar    1  UNL1        0.0229
     24 C         142.7445  132.2399  153.5596 C.ar    1  UNL1        0.1004
     25 N         142.1325  133.5128  153.0544 N.ar    1  UNL1       -0.2290
     26 C         142.1143  134.7336  153.9257 C.ar    1  UNL1        0.1330
     27 N         141.5023  136.0065  153.4205 N.pl3   1  UNL1       -0.3421
     28 H         141.1126  136.0407  152.5171 H       1  UNL1        0.1437
     29 H         141.4904  136.8078  153.9924 H       1  UNL1        0.1437
     30 C         143.9502  130.9149  155.4412 C.ar    1  UNL1        0.0412
     31 C         143.9631  130.4478  156.8666 C.ar    1  UNL1        0.1217
     32 N         144.6776  129.1298  156.9160 N.ar    1  UNL1       -0.1676
     33 N         145.1062  128.7823  155.5212 N.ar    1  UNL1       -0.2473
     34 C         145.8532  127.5483  155.1100 C.3     1  UNL1        0.1538
     35 C         144.6566  129.8856  154.6097 C.ar    1  UNL1        0.0967
@<TRIPOS>BOND
     1     1     2    1
     2     2     3   ar
     3     3     4   ar
     4     4     5   ar
     5     5     8    1
     6     8     9    2
     7     8    10   am
     8    10    12    1
     9    12    13   ar
    10    13    14   ar
    11    14    15   ar
    12    15    16    1
    13    15    17   ar
    14    17    18   ar
    15     5     6   ar
    16     6     7   ar
    17     7    19    1
    18    19    20    3
    19    20    21    1
    20    21    22   ar
    21    22    23   ar
    22    23    30    1
    23    30    31   ar
    24    31    32   ar
    25    32    33   ar
    26    33    34    1
    27    33    35   ar
    28    23    24   ar
    29    24    25   ar
    30    25    26   ar
    31    26    27    1
    32     7     2   ar
    33    26    21   ar
    34    18    12   ar
    35    35    30   ar
    36    10    11    1
    37    27    28    1
    38    27    29    1
@<TRIPOS>MOLECULE
*****
 35 38 0 0 0
SMALL
GASTEIGER

@<TRIPOS>ATOM
      1 C         141.5574  138.8513  158.7138 C.3     1  UNL1        0.0317
      2 C         142.6817  139.3482  157.8542 C.ar    1  UNL1       -0.0142
      3 C         143.1020  138.5678  156.6441 C.ar    1  UNL1       -0.0035
      4 C         144.2263  139.0647  155.7844 C.ar    1  UNL1        0.0042
      5 C         144.9304  140.3419  156.1349 C.ar    1  UNL1        0.0543
      6 C         144.5101  141.1223  157.3450 C.ar    1  UNL1        0.0124
      7 C         143.3858  140.6254  158.2046 C.ar    1  UNL1        0.0381
      8 C         146.0547  140.8388  155.2752 C.2     1  UNL1        0.2495
      9 O         146.0530  140.5577  153.8018 O.2     1  UNL1       -0.2698
     10 N         147.1807  141.6168  155.8890 N.am    1  UNL1       -0.2804
     11 H         147.1819  141.8013  156.8560 H       1  UNL1        0.1552
     12 C         148.3051  142.1137  155.0293 C.ar    1  UNL1        0.0506
     13 C         148.0494  143.1730  153.9985 C.ar    1  UNL1        0.0155
     14 C         149.1737  143.6699  153.1389 C.ar    1  UNL1        0.0127
     15 C         150.5537  143.1075  153.3100 C.ar    1  UNL1        0.0578
     16 CL        151.6781  143.6043  152.4504 Cl      1  UNL1       -0.0822
     17 C         150.8094  142.0482  154.3408 C.ar    1  UNL1        0.0127
     18 C         149.6850  141.5513  155.2005 C.ar    1  UNL1        0.0155
     19 C         142.9655  141.4059  159.4148 C.1     1  UNL1       -0.0600
     20 C         142.5453  142.1863  160.6248 C.1     1  UNL1       -0.0570
     21 C         142.1250  142.9667  161.8350 C.ar    1  UNL1        0.0731
     22 C         142.0382  142.2900  163.1708 C.ar    1  UNL1        0.0127
     23 C         141.6180  143.0704  164.3810 C.ar    1  UNL1        0.0229
     24 C         141.2846  144.5274  164.2552 C.ar    1  UNL1        0.1004
     25 N         141.3715  145.2041  162.9193 N.ar    1  UNL1       -0.2290
     26 C         141.7917  144.4237  161.7092 C.ar    1  UNL1        0.1330
     27 N         141.8785  145.1004  160.3733 N.pl3   1  UNL1       -0.3421
     28 H         141.6597  146.0567  160.2908 H       1  UNL1        0.1437
     29 H         142.1543  144.5882  159.5791 H       1  UNL1        0.1437
     30 C         141.5311  142.3937  165.7168 C.ar    1  UNL1        0.0412
     31 C         142.6653  142.1887  166.6767 C.ar    1  UNL1        0.1217
     32 N         142.1300  141.4715  167.8805 N.ar    1  UNL1       -0.1676
     33 N         140.6649  141.2333  167.6646 N.ar    1  UNL1       -0.2473
     34 C         139.7334  140.5459  168.6184 C.3     1  UNL1        0.1538
     35 C         140.2948  141.8033  166.3274 C.ar    1  UNL1        0.0967
@<TRIPOS>BOND
     1     1     2    1
     2     2     3   ar
     3     3     4   ar
     4     4     5   ar
     5     5     8    1
     6     8     9    2
     7     8    10   am
     8    10    12    1
     9    12    13   ar
    10    13    14   ar
    11    14    15   ar
    12    15    16    1
    13    15    17   ar
    14    17    18   ar
    15     5     6   ar
    16     6     7   ar
    17     7    19    1
    18    19    20    3
    19    20    21    1
    20    21    22   ar
    21    22    23   ar
    22    23    30    1
    23    30    31   ar
    24    31    32   ar
    25    32    33   ar
    26    33    34    1
    27    33    35   ar
    28    23    24   ar
    29    24    25   ar
    30    25    26   ar
    31    26    27    1
    32     7     2   ar
    33    26    21   ar
    34    18    12   ar
    35    35    30   ar
    36    10    11    1
    37    27    28    1
    38    27    29    1
