@<TRIPOS>MOLECULE
*****
 29 33 0 0 0
SMALL
GASTEIGER

@<TRIPOS>ATOM
      1 C         139.0250  140.0902  165.8279 C.ar    1  UNL1        0.1414
      2 C         139.9028  140.7097  166.8747 C.ar    1  UNL1        0.1469
      3 C         140.2114  142.1767  166.8224 C.ar    1  UNL1        0.0560
      4 C         139.6421  143.0241  165.7234 C.ar    1  UNL1        0.0857
      5 N         138.7644  142.4046  164.6766 N.ar    1  UNL1       -0.2757
      6 C         138.0652  142.9830  163.4822 C.ar    1  UNL1        0.1471
      7 N         137.3246  141.8735  162.7963 N.ar    1  UNL1       -0.1330
      8 N         137.5660  140.6094  163.5668 N.ar    1  UNL1       -0.1287
      9 C         138.4559  140.9376  164.7289 C.ar    1  UNL1        0.1770
     10 F         138.4079  137.1562  165.9325 F       1  UNL1       -0.1656
     11 C         138.7165  138.6232  165.8802 C.3     1  UNL1        0.4243
     12 F         137.4364  138.9182  166.6044 F       1  UNL1       -0.1656
     13 F         139.9966  138.3281  165.1561 F       1  UNL1       -0.1656
     14 O         140.4720  139.8623  167.9737 O.3     1  UNL1       -0.4753
     15 C         141.9558  139.6709  168.0813 C.3     1  UNL1        0.2056
     16 C         142.7523  139.2873  166.8694 C.3     1  UNL1        0.0481
     17 C         143.6509  138.3193  166.1585 C.3     1  UNL1        0.0085
     18 C         143.2333  139.5909  165.4814 C.3     1  UNL1        0.0261
     19 C         143.2698  140.5004  164.2892 C.ar    1  UNL1       -0.0223
     20 C         141.9903  140.9373  163.6396 C.ar    1  UNL1       -0.0034
     21 C         142.0269  141.8468  162.4473 C.ar    1  UNL1        0.0111
     22 C         143.3430  142.3194  161.9047 C.ar    1  UNL1        0.0577
     23 CL        143.3795  143.2289  160.7125 Cl      1  UNL1       -0.0822
     24 C         144.6225  141.8826  162.5543 C.ar    1  UNL1        0.0111
     25 C         144.5860  140.9731  163.7465 C.ar    1  UNL1       -0.0034
     26 C         138.1006  144.4188  163.0497 C.3     1  UNL1        0.0662
     27 C         139.4017  145.0506  162.6523 C.3     1  UNL1        0.0076
     28 C         140.1992  145.8962  161.7040 C.3     1  UNL1        0.0005
     29 C         140.8579  145.2994  162.9122 C.3     1  UNL1        0.0005
@<TRIPOS>BOND
     1    10    11    1
     2    11    12    1
     3    11    13    1
     4    11     1    1
     5     1     2   ar
     6     2    14    1
     7    14    15    1
     8    16    15    1
     9    16    17    1
    10    17    18    1
    11    18    19    1
    12    19    20   ar
    13    20    21   ar
    14    21    22   ar
    15    22    23    1
    16    22    24   ar
    17    24    25   ar
    18     2     3   ar
    19     3     4   ar
    20     4     5   ar
    21     5     6   ar
    22     6    26    1
    23    26    27    1
    24    27    28    1
    25    28    29    1
    26     6     7   ar
    27     7     8   ar
    28     8     9   ar
    29     9     1   ar
    30    18    16    1
    31    25    19   ar
    32     9     5   ar
    33    29    27    1
@<TRIPOS>MOLECULE
*****
 29 33 0 0 0
SMALL
GASTEIGER

@<TRIPOS>ATOM
      1 C         140.4887  143.8687  162.2012 C.ar    1  UNL1        0.1414
      2 C         141.9082  143.3904  162.1208 C.ar    1  UNL1        0.1469
      3 C         142.2105  141.9230  162.1942 C.ar    1  UNL1        0.0560
      4 C         141.0933  140.9339  162.3479 C.ar    1  UNL1        0.0857
      5 N         139.6739  141.4122  162.4282 N.ar    1  UNL1       -0.2757
      6 C         138.3745  140.6782  162.5793 C.ar    1  UNL1        0.1471
      7 N         137.2691  141.6920  162.5994 N.ar    1  UNL1       -0.1330
      8 N         137.8854  143.0525  162.4606 N.ar    1  UNL1       -0.1287
      9 C         139.3716  142.8796  162.3548 C.ar    1  UNL1        0.1770
     10 F         139.8841  146.8035  162.0544 F       1  UNL1       -0.1656
     11 C         140.1864  145.3361  162.1278 C.3     1  UNL1        0.4243
     12 F         140.0340  145.2303  160.6393 F       1  UNL1       -0.1656
     13 F         140.3389  145.4419  163.6163 F       1  UNL1       -0.1656
     14 O         143.0253  144.3796  161.9672 O.3     1  UNL1       -0.4753
     15 C         143.6485  145.0016  163.1815 C.3     1  UNL1        0.2056
     16 C         143.9023  144.1699  164.4038 C.3     1  UNL1        0.0481
     17 C         144.8230  143.7141  165.4967 C.3     1  UNL1        0.0085
     18 C         143.4211  143.1853  165.4279 C.3     1  UNL1        0.0261
     19 C         142.3338  142.3114  165.9794 C.ar    1  UNL1       -0.0223
     20 C         142.6840  141.1127  166.8104 C.ar    1  UNL1       -0.0034
     21 C         141.5966  140.2389  167.3619 C.ar    1  UNL1        0.0111
     22 C         140.1592  140.5637  167.0825 C.ar    1  UNL1        0.0577
     23 CL        139.0719  139.6899  167.6340 Cl      1  UNL1       -0.0822
     24 C         139.8090  141.7624  166.2516 C.ar    1  UNL1        0.0111
     25 C         140.8962  142.6363  165.7000 C.ar    1  UNL1       -0.0034
     26 C         138.2095  139.1915  162.6908 C.3     1  UNL1        0.0662
     27 C         138.9186  138.4375  163.7765 C.3     1  UNL1        0.0076
     28 C         138.8731  137.5451  164.9813 C.3     1  UNL1        0.0005
     29 C         140.1924  138.0240  164.4521 C.3     1  UNL1        0.0005
@<TRIPOS>BOND
     1    10    11    1
     2    11    12    1
     3    11    13    1
     4    11     1    1
     5     1     2   ar
     6     2    14    1
     7    14    15    1
     8    16    15    1
     9    16    17    1
    10    17    18    1
    11    18    19    1
    12    19    20   ar
    13    20    21   ar
    14    21    22   ar
    15    22    23    1
    16    22    24   ar
    17    24    25   ar
    18     2     3   ar
    19     3     4   ar
    20     4     5   ar
    21     5     6   ar
    22     6    26    1
    23    26    27    1
    24    27    28    1
    25    28    29    1
    26     6     7   ar
    27     7     8   ar
    28     8     9   ar
    29     9     1   ar
    30    18    16    1
    31    25    19   ar
    32     9     5   ar
    33    29    27    1
@<TRIPOS>MOLECULE
*****
 29 33 0 0 0
SMALL
GASTEIGER

@<TRIPOS>ATOM
      1 C         143.1232  139.8436  164.3824 C.ar    1  UNL1        0.1414
      2 C         142.3727  139.2360  163.2346 C.ar    1  UNL1        0.1469
      3 C         141.8091  140.1151  162.1577 C.ar    1  UNL1        0.0560
      4 C         141.9962  141.6017  162.2287 C.ar    1  UNL1        0.0857
      5 N         142.7467  142.2093  163.3765 N.ar    1  UNL1       -0.2757
      6 C         143.0874  143.6308  163.7130 C.ar    1  UNL1        0.1471
      7 N         143.8615  143.6303  164.9978 N.ar    1  UNL1       -0.1330
      8 N         143.9992  142.2085  165.4554 N.ar    1  UNL1       -0.1287
      9 C         143.3103  141.3302  164.4534 C.ar    1  UNL1        0.1770
     10 F         144.2503  138.0855  166.5362 F       1  UNL1       -0.1656
     11 C         143.6868  138.9646  165.4593 C.3     1  UNL1        0.4243
     12 F         142.3383  138.9009  166.1131 F       1  UNL1       -0.1656
     13 F         145.0353  139.0282  164.8056 F       1  UNL1       -0.1656
     14 O         142.1856  137.7495  163.1636 O.3     1  UNL1       -0.4753
     15 C         140.8156  137.1579  163.3153 C.3     1  UNL1        0.2056
     16 C         139.8367  137.7689  164.2738 C.3     1  UNL1        0.0481
     17 C         138.7740  137.6131  165.3208 C.3     1  UNL1        0.0085
     18 C         139.2040  138.9829  164.8867 C.3     1  UNL1        0.0261
     19 C         139.0869  140.4748  164.9899 C.ar    1  UNL1       -0.0223
     20 C         140.0691  141.2486  165.8185 C.ar    1  UNL1       -0.0034
     21 C         139.9520  142.7405  165.9216 C.ar    1  UNL1        0.0111
     22 C         138.8527  143.4585  165.1963 C.ar    1  UNL1        0.0577
     23 CL        138.7357  144.9503  165.2995 Cl      1  UNL1       -0.0822
     24 C         137.8706  142.6846  164.3677 C.ar    1  UNL1        0.0111
     25 C         137.9876  141.1928  164.2645 C.ar    1  UNL1       -0.0034
     26 C         142.7187  144.8404  162.9062 C.3     1  UNL1        0.0662
     27 C         141.3045  145.0311  162.4440 C.3     1  UNL1        0.0076
     28 C         140.0280  144.4623  161.8989 C.3     1  UNL1        0.0005
     29 C         140.1315  145.9304  162.1884 C.3     1  UNL1        0.0005
@<TRIPOS>BOND
     1    10    11    1
     2    11    12    1
     3    11    13    1
     4    11     1    1
     5     1     2   ar
     6     2    14    1
     7    14    15    1
     8    16    15    1
     9    16    17    1
    10    17    18    1
    11    18    19    1
    12    19    20   ar
    13    20    21   ar
    14    21    22   ar
    15    22    23    1
    16    22    24   ar
    17    24    25   ar
    18     2     3   ar
    19     3     4   ar
    20     4     5   ar
    21     5     6   ar
    22     6    26    1
    23    26    27    1
    24    27    28    1
    25    28    29    1
    26     6     7   ar
    27     7     8   ar
    28     8     9   ar
    29     9     1   ar
    30    18    16    1
    31    25    19   ar
    32     9     5   ar
    33    29    27    1
@<TRIPOS>MOLECULE
*****
 29 33 0 0 0
SMALL
GASTEIGER

@<TRIPOS>ATOM
      1 C         143.2079  139.9444  164.4479 C.ar    1  UNL1        0.1414
      2 C         142.2400  139.3479  163.4694 C.ar    1  UNL1        0.1469
      3 C         141.4375  140.2403  162.5696 C.ar    1  UNL1        0.0560
      4 C         141.6027  141.7291  162.6484 C.ar    1  UNL1        0.0857
      5 N         142.5706  142.3255  163.6269 N.ar    1  UNL1       -0.2757
      6 C         142.9448  143.7462  163.9295 C.ar    1  UNL1        0.1471
      7 N         143.9786  143.7320  165.0162 N.ar    1  UNL1       -0.1330
      8 N         144.2434  142.3024  165.3853 N.ar    1  UNL1       -0.1287
      9 C         143.3732  141.4331  164.5267 C.ar    1  UNL1        0.1770
     10 F         144.8131  138.1597  166.2474 F       1  UNL1       -0.1656
     11 C         144.0105  139.0520  165.3477 C.3     1  UNL1        0.4243
     12 F         145.1293  139.0508  164.3485 F       1  UNL1       -0.1656
     13 F         142.8917  139.0533  166.3469 F       1  UNL1       -0.1656
     14 O         142.0748  137.8592  163.3906 O.3     1  UNL1       -0.4753
     15 C         141.1372  137.1580  164.3283 C.3     1  UNL1        0.2056
     16 C         140.0058  137.9127  164.9612 C.3     1  UNL1        0.0481
     17 C         138.5339  138.1160  165.1665 C.3     1  UNL1        0.0085
     18 C         139.5182  139.0167  165.8520 C.3     1  UNL1        0.0261
     19 C         139.8049  140.1740  166.7620 C.ar    1  UNL1       -0.0223
     20 C         140.2157  141.4969  166.1865 C.ar    1  UNL1       -0.0034
     21 C         140.5025  142.6543  167.0966 C.ar    1  UNL1        0.0111
     22 C         140.3783  142.4888  168.5822 C.ar    1  UNL1        0.0577
     23 CL        140.6651  143.6462  169.4923 Cl      1  UNL1       -0.0822
     24 C         139.9675  141.1659  169.1578 C.ar    1  UNL1        0.0111
     25 C         139.6808  140.0086  168.2478 C.ar    1  UNL1       -0.0034
     26 C         142.3836  144.9669  163.2624 C.3     1  UNL1        0.0662
     27 C         140.8984  145.1431  163.1478 C.3     1  UNL1        0.0076
     28 C         139.7069  145.6803  162.4116 C.3     1  UNL1        0.0005
     29 C         139.5174  144.9112  163.6855 C.3     1  UNL1        0.0005
@<TRIPOS>BOND
     1    10    11    1
     2    11    12    1
     3    11    13    1
     4    11     1    1
     5     1     2   ar
     6     2    14    1
     7    14    15    1
     8    16    15    1
     9    16    17    1
    10    17    18    1
    11    18    19    1
    12    19    20   ar
    13    20    21   ar
    14    21    22   ar
    15    22    23    1
    16    22    24   ar
    17    24    25   ar
    18     2     3   ar
    19     3     4   ar
    20     4     5   ar
    21     5     6   ar
    22     6    26    1
    23    26    27    1
    24    27    28    1
    25    28    29    1
    26     6     7   ar
    27     7     8   ar
    28     8     9   ar
    29     9     1   ar
    30    18    16    1
    31    25    19   ar
    32     9     5   ar
    33    29    27    1
@<TRIPOS>MOLECULE
*****
 29 33 0 0 0
SMALL
GASTEIGER

@<TRIPOS>ATOM
      1 C         139.6251  139.4126  164.8751 C.ar    1  UNL1        0.1414
      2 C         139.2804  139.8662  163.4874 C.ar    1  UNL1        0.1469
      3 C         140.3717  140.1458  162.4971 C.ar    1  UNL1        0.0560
      4 C         141.8077  139.9719  162.8943 C.ar    1  UNL1        0.0857
      5 N         142.1523  139.5183  164.2819 N.ar    1  UNL1       -0.2757
      6 C         143.4672  139.2601  164.9559 C.ar    1  UNL1        0.1471
      7 N         143.1886  138.8209  166.3629 N.ar    1  UNL1       -0.1330
      8 N         141.7015  138.8076  166.5584 N.ar    1  UNL1       -0.1287
      9 C         141.0610  139.2386  165.2723 C.ar    1  UNL1        0.1770
     10 F         137.4424  138.8533  166.8559 F       1  UNL1       -0.1656
     11 C         138.5337  139.1329  165.8655 C.3     1  UNL1        0.4243
     12 F         138.5457  140.5729  166.2852 F       1  UNL1       -0.1656
     13 F         138.5218  137.6929  165.4457 F       1  UNL1       -0.1656
     14 O         137.8444  140.0401  163.0902 O.3     1  UNL1       -0.4753
     15 C         137.2763  141.4173  162.9153 C.3     1  UNL1        0.2056
     16 C         137.8149  142.5593  163.7252 C.3     1  UNL1        0.0481
     17 C         137.5919  143.8399  164.4737 C.3     1  UNL1        0.0085
     18 C         138.9706  143.2566  164.3794 C.3     1  UNL1        0.0261
     19 C         140.4339  143.3224  164.7026 C.ar    1  UNL1       -0.0223
     20 C         141.3671  144.0790  163.8044 C.ar    1  UNL1       -0.0034
     21 C         142.8304  144.1447  164.1277 C.ar    1  UNL1        0.0111
     22 C         143.3604  143.4541  165.3491 C.ar    1  UNL1        0.0577
     23 CL        144.8237  143.5199  165.6723 Cl      1  UNL1       -0.0822
     24 C         142.4272  142.6975  166.2473 C.ar    1  UNL1        0.0111
     25 C         140.9640  142.6317  165.9241 C.ar    1  UNL1       -0.0034
     26 C         144.8228  139.4141  164.3324 C.3     1  UNL1        0.0662
     27 C         145.1209  140.6049  163.4705 C.3     1  UNL1        0.0076
     28 C         144.8292  141.4349  162.2555 C.3     1  UNL1        0.0005
     29 C         145.9292  141.8376  163.1925 C.3     1  UNL1        0.0005
@<TRIPOS>BOND
     1    10    11    1
     2    11    12    1
     3    11    13    1
     4    11     1    1
     5     1     2   ar
     6     2    14    1
     7    14    15    1
     8    16    15    1
     9    16    17    1
    10    17    18    1
    11    18    19    1
    12    19    20   ar
    13    20    21   ar
    14    21    22   ar
    15    22    23    1
    16    22    24   ar
    17    24    25   ar
    18     2     3   ar
    19     3     4   ar
    20     4     5   ar
    21     5     6   ar
    22     6    26    1
    23    26    27    1
    24    27    28    1
    25    28    29    1
    26     6     7   ar
    27     7     8   ar
    28     8     9   ar
    29     9     1   ar
    30    18    16    1
    31    25    19   ar
    32     9     5   ar
    33    29    27    1
@<TRIPOS>MOLECULE
*****
 29 33 0 0 0
SMALL
GASTEIGER

@<TRIPOS>ATOM
      1 C         143.2500  142.1192  164.5007 C.ar    1  UNL1        0.1414
      2 C         142.3295  142.6819  163.4585 C.ar    1  UNL1        0.1469
      3 C         141.3100  141.7985  162.8026 C.ar    1  UNL1        0.0560
      4 C         141.2110  140.3525  163.1888 C.ar    1  UNL1        0.0857
      5 N         142.1314  139.7898  164.2310 N.ar    1  UNL1       -0.2757
      6 C         142.2674  138.4139  164.8127 C.ar    1  UNL1        0.1471
      7 N         143.3710  138.4468  165.8281 N.ar    1  UNL1       -0.1330
      8 N         143.9170  139.8431  165.8740 N.ar    1  UNL1       -0.1287
      9 C         143.1510  140.6732  164.8869 C.ar    1  UNL1        0.1770
     10 F         145.2890  143.8859  165.8126 F       1  UNL1       -0.1656
     11 C         144.2695  143.0025  165.1567 C.3     1  UNL1        0.4243
     12 F         143.3843  143.1301  166.3608 F       1  UNL1       -0.1656
     13 F         145.1548  142.8750  163.9525 F       1  UNL1       -0.1656
     14 O         142.4286  144.1279  163.0723 O.3     1  UNL1       -0.4753
     15 C         141.4515  145.1211  163.6278 C.3     1  UNL1        0.2056
     16 C         140.3156  144.6546  164.4894 C.3     1  UNL1        0.0481
     17 C         138.8668  144.7140  164.8732 C.3     1  UNL1        0.0085
     18 C         139.7971  143.7869  165.5977 C.3     1  UNL1        0.0261
     19 C         140.0349  142.7508  166.6559 C.ar    1  UNL1       -0.0223
     20 C         139.8113  141.2998  166.3485 C.ar    1  UNL1       -0.0034
     21 C         140.0491  140.2636  167.4067 C.ar    1  UNL1        0.0111
     22 C         140.5106  140.6784  168.7723 C.ar    1  UNL1        0.0577
     23 CL        140.7484  139.6423  169.8305 Cl      1  UNL1       -0.0822
     24 C         140.7343  142.1295  169.0797 C.ar    1  UNL1        0.0111
     25 C         140.4964  143.1656  168.0216 C.ar    1  UNL1       -0.0034
     26 C         141.4444  137.2154  164.4436 C.3     1  UNL1        0.0662
     27 C         139.9472  137.3069  164.4373 C.3     1  UNL1        0.0076
     28 C         138.6394  137.2566  165.1704 C.3     1  UNL1        0.0005
     29 C         138.6616  137.5156  163.6931 C.3     1  UNL1        0.0005
@<TRIPOS>BOND
     1    10    11    1
     2    11    12    1
     3    11    13    1
     4    11     1    1
     5     1     2   ar
     6     2    14    1
     7    14    15    1
     8    16    15    1
     9    16    17    1
    10    17    18    1
    11    18    19    1
    12    19    20   ar
    13    20    21   ar
    14    21    22   ar
    15    22    23    1
    16    22    24   ar
    17    24    25   ar
    18     2     3   ar
    19     3     4   ar
    20     4     5   ar
    21     5     6   ar
    22     6    26    1
    23    26    27    1
    24    27    28    1
    25    28    29    1
    26     6     7   ar
    27     7     8   ar
    28     8     9   ar
    29     9     1   ar
    30    18    16    1
    31    25    19   ar
    32     9     5   ar
    33    29    27    1
@<TRIPOS>MOLECULE
*****
 29 33 0 0 0
SMALL
GASTEIGER

@<TRIPOS>ATOM
      1 C         141.4200  138.7859  164.9594 C.ar    1  UNL1        0.1414
      2 C         142.8496  139.0502  165.3288 C.ar    1  UNL1        0.1469
      3 C         143.1843  139.6069  166.6808 C.ar    1  UNL1        0.0560
      4 C         142.0893  139.8993  167.6636 C.ar    1  UNL1        0.0857
      5 N         140.6598  139.6350  167.2942 N.ar    1  UNL1       -0.2757
      6 C         139.3770  139.8224  168.0488 C.ar    1  UNL1        0.1471
      7 N         138.2495  139.3815  167.1631 N.ar    1  UNL1       -0.1330
      8 N         138.8355  138.9216  165.8611 N.ar    1  UNL1       -0.1287
      9 C         140.3251  139.0783  165.9421 C.ar    1  UNL1        0.1770
     10 F         140.7506  137.6724  162.2553 F       1  UNL1       -0.1656
     11 C         141.0853  138.2291  163.6074 C.3     1  UNL1        0.4243
     12 F         141.0874  136.8419  164.1781 F       1  UNL1       -0.1656
     13 F         141.0832  139.6163  163.0367 F       1  UNL1       -0.1656
     14 O         143.9445  138.7578  164.3461 O.3     1  UNL1       -0.4753
     15 C         145.0380  139.7597  164.1216 C.3     1  UNL1        0.2056
     16 C         144.7030  141.1405  163.6407 C.3     1  UNL1        0.0481
     17 C         145.0555  142.3577  162.8381 C.3     1  UNL1        0.0085
     18 C         143.7703  142.3149  163.6104 C.3     1  UNL1        0.0261
     19 C         142.4898  142.9681  164.0387 C.ar    1  UNL1       -0.0223
     20 C         141.9129  144.0908  163.2283 C.ar    1  UNL1       -0.0034
     21 C         140.6323  144.7440  163.6567 C.ar    1  UNL1        0.0111
     22 C         139.9288  144.2747  164.8955 C.ar    1  UNL1        0.0577
     23 CL        138.6483  144.9280  165.3238 Cl      1  UNL1       -0.0822
     24 C         140.5057  143.1521  165.7060 C.ar    1  UNL1        0.0111
     25 C         141.7862  142.4988  165.2776 C.ar    1  UNL1       -0.0034
     26 C         139.2450  140.3569  169.4441 C.3     1  UNL1        0.0662
     27 C         139.7265  141.7406  169.7659 C.3     1  UNL1        0.0076
     28 C         139.7343  142.9352  170.6731 C.3     1  UNL1        0.0005
     29 C         140.5528  142.9426  169.4161 C.3     1  UNL1        0.0005
@<TRIPOS>BOND
     1    10    11    1
     2    11    12    1
     3    11    13    1
     4    11     1    1
     5     1     2   ar
     6     2    14    1
     7    14    15    1
     8    16    15    1
     9    16    17    1
    10    17    18    1
    11    18    19    1
    12    19    20   ar
    13    20    21   ar
    14    21    22   ar
    15    22    23    1
    16    22    24   ar
    17    24    25   ar
    18     2     3   ar
    19     3     4   ar
    20     4     5   ar
    21     5     6   ar
    22     6    26    1
    23    26    27    1
    24    27    28    1
    25    28    29    1
    26     6     7   ar
    27     7     8   ar
    28     8     9   ar
    29     9     1   ar
    30    18    16    1
    31    25    19   ar
    32     9     5   ar
    33    29    27    1
@<TRIPOS>MOLECULE
*****
 29 33 0 0 0
SMALL
GASTEIGER

@<TRIPOS>ATOM
      1 C         139.6460  139.4610  162.9940 C.ar    1  UNL1        0.1414
      2 C         140.6275  140.0075  162.0000 C.ar    1  UNL1        0.1469
      3 C         141.5848  141.0879  162.4076 C.ar    1  UNL1        0.0560
      4 C         141.5607  141.6218  163.8092 C.ar    1  UNL1        0.0857
      5 N         140.5793  141.0753  164.8032 N.ar    1  UNL1       -0.2757
      6 C         140.3229  141.4021  166.2445 C.ar    1  UNL1        0.1471
      7 N         139.2071  140.5238  166.7277 N.ar    1  UNL1       -0.1330
      8 N         138.7739  139.6540  165.5850 N.ar    1  UNL1       -0.1287
      9 C         139.6219  139.9948  164.3956 C.ar    1  UNL1        0.1770
     10 F         137.7312  137.3001  162.1788 F       1  UNL1       -0.1656
     11 C         138.6886  138.3806  162.5864 C.3     1  UNL1        0.4243
     12 F         137.6418  139.4161  162.3001 F       1  UNL1       -0.1656
     13 F         139.7353  137.3450  162.8727 F       1  UNL1       -0.1656
     14 O         140.6516  139.4737  160.5985 O.3     1  UNL1       -0.4753
     15 C         139.6463  139.9557  159.5950 C.3     1  UNL1        0.2056
     16 C         139.0399  141.3204  159.7368 C.3     1  UNL1        0.0481
     17 C         138.3637  142.5113  159.1250 C.3     1  UNL1        0.0085
     18 C         138.6660  142.4930  160.5941 C.3     1  UNL1        0.0261
     19 C         138.6246  143.1595  161.9372 C.ar    1  UNL1       -0.0223
     20 C         139.5150  144.3331  162.2199 C.ar    1  UNL1       -0.0034
     21 C         139.4736  144.9995  163.5632 C.ar    1  UNL1        0.0111
     22 C         138.5419  144.4924  164.6236 C.ar    1  UNL1        0.0577
     23 CL        138.5005  145.1588  165.9668 Cl      1  UNL1       -0.0822
     24 C         137.6515  143.3188  164.3409 C.ar    1  UNL1        0.0111
     25 C         137.6929  142.6523  162.9978 C.ar    1  UNL1       -0.0034
     26 C         141.0540  142.4274  167.0595 C.3     1  UNL1        0.0662
     27 C         140.6192  142.7171  168.4656 C.3     1  UNL1        0.0076
     28 C         140.0811  142.2423  169.7829 C.3     1  UNL1        0.0005
     29 C         140.4041  143.6935  169.5838 C.3     1  UNL1        0.0005
@<TRIPOS>BOND
     1    10    11    1
     2    11    12    1
     3    11    13    1
     4    11     1    1
     5     1     2   ar
     6     2    14    1
     7    14    15    1
     8    16    15    1
     9    16    17    1
    10    17    18    1
    11    18    19    1
    12    19    20   ar
    13    20    21   ar
    14    21    22   ar
    15    22    23    1
    16    22    24   ar
    17    24    25   ar
    18     2     3   ar
    19     3     4   ar
    20     4     5   ar
    21     5     6   ar
    22     6    26    1
    23    26    27    1
    24    27    28    1
    25    28    29    1
    26     6     7   ar
    27     7     8   ar
    28     8     9   ar
    29     9     1   ar
    30    18    16    1
    31    25    19   ar
    32     9     5   ar
    33    29    27    1
@<TRIPOS>MOLECULE
*****
 29 33 0 0 0
SMALL
GASTEIGER

@<TRIPOS>ATOM
      1 C         142.5573  140.5617  162.0497 C.ar    1  UNL1        0.1414
      2 C         143.6973  140.2913  162.9864 C.ar    1  UNL1        0.1469
      3 C         143.4843  139.4346  164.1992 C.ar    1  UNL1        0.0560
      4 C         142.1314  138.8484  164.4752 C.ar    1  UNL1        0.0857
      5 N         140.9915  139.1189  163.5384 N.ar    1  UNL1       -0.2757
      6 C         139.5570  138.6808  163.5504 C.ar    1  UNL1        0.1471
      7 N         138.8833  139.2666  162.3450 N.ar    1  UNL1       -0.1330
      8 N         139.9016  140.0668  161.5881 N.ar    1  UNL1       -0.1287
      9 C         141.2045  139.9755  162.3257 C.ar    1  UNL1        0.1770
     10 F         142.9832  142.2750  159.6241 F       1  UNL1       -0.1656
     11 C         142.7703  141.4184  160.8369 C.3     1  UNL1        0.4243
     12 F         142.3535  142.6288  161.6187 F       1  UNL1       -0.1656
     13 F         143.1870  140.2079  160.0551 F       1  UNL1       -0.1656
     14 O         145.0501  140.8775  162.7104 O.3     1  UNL1       -0.4753
     15 C         145.7242  141.7281  163.7457 C.3     1  UNL1        0.2056
     16 C         144.9159  142.6809  164.5758 C.3     1  UNL1        0.0481
     17 C         144.8372  143.7158  165.6588 C.3     1  UNL1        0.0085
     18 C         143.5948  143.2963  164.9306 C.3     1  UNL1        0.0261
     19 C         142.1147  143.4094  164.7150 C.ar    1  UNL1       -0.0223
     20 C         141.2046  142.3056  165.1658 C.ar    1  UNL1       -0.0034
     21 C         139.7244  142.4187  164.9502 C.ar    1  UNL1        0.0111
     22 C         139.1545  143.6356  164.2837 C.ar    1  UNL1        0.0577
     23 CL        137.6744  143.7487  164.0681 Cl      1  UNL1       -0.0822
     24 C         140.0646  144.7394  163.8328 C.ar    1  UNL1        0.0111
     25 C         141.5447  144.6263  164.0484 C.ar    1  UNL1       -0.0034
     26 C         138.9097  137.8097  164.5859 C.3     1  UNL1        0.0662
     27 C         138.5113  138.3893  165.9108 C.3     1  UNL1        0.0076
     28 C         138.7637  139.3441  167.0399 C.3     1  UNL1        0.0005
     29 C         137.5686  138.4384  167.0765 C.3     1  UNL1        0.0005
@<TRIPOS>BOND
     1    10    11    1
     2    11    12    1
     3    11    13    1
     4    11     1    1
     5     1     2   ar
     6     2    14    1
     7    14    15    1
     8    16    15    1
     9    16    17    1
    10    17    18    1
    11    18    19    1
    12    19    20   ar
    13    20    21   ar
    14    21    22   ar
    15    22    23    1
    16    22    24   ar
    17    24    25   ar
    18     2     3   ar
    19     3     4   ar
    20     4     5   ar
    21     5     6   ar
    22     6    26    1
    23    26    27    1
    24    27    28    1
    25    28    29    1
    26     6     7   ar
    27     7     8   ar
    28     8     9   ar
    29     9     1   ar
    30    18    16    1
    31    25    19   ar
    32     9     5   ar
    33    29    27    1
