@<TRIPOS>MOLECULE
*****
 31 35 0 0 0
SMALL
GASTEIGER

@<TRIPOS>ATOM
      1 N         139.2687  138.4136  164.9164 N.3     1  UNL1       -0.2704
      2 C         140.5739  139.1451  165.0222 C.3     1  UNL1        0.0722
      3 C         140.9027  139.9163  166.2661 C.3     1  UNL1        0.0191
      4 C         139.9262  139.9559  167.4040 C.3     1  UNL1        0.0225
      5 C         138.6210  139.2244  167.2982 C.3     1  UNL1        0.0191
      6 C         138.2922  138.4532  166.0544 C.3     1  UNL1        0.0722
      7 C         139.0537  140.0860  168.6173 C.3     1  UNL1        0.0231
      8 C         139.7735  140.9430  169.6162 C.3     1  UNL1        0.0906
      9 N         141.0909  141.3424  169.0202 N.pl3   1  UNL1       -0.3077
     10 C         141.1853  140.7324  167.6531 C.3     1  UNL1        0.0906
     11 C         142.1312  142.2011  169.6762 C.2     1  UNL1        0.0757
     12 C         143.6155  142.0799  169.4971 C.2     1  UNL1        0.0956
     13 C         144.2715  143.1356  170.3367 C.2     1  UNL1        0.3428
     14 O         145.7473  143.3756  170.4571 O.2     1  UNL1       -0.2448
     15 O         143.1926  143.9094  171.0349 O.3     1  UNL1       -0.4390
     16 C         141.8698  143.3318  170.6266 C.3     1  UNL1        0.2498
     17 C         138.9399  137.6424  163.6725 C.3     1  UNL1        0.1063
     18 C         138.3614  138.3492  162.4827 C.3     1  UNL1        0.1483
     19 O         137.5787  137.5796  161.4605 O.3     1  UNL1       -0.3786
     20 H         137.2782  138.1823  160.7623 H       1  UNL1        0.2108
     21 C         140.7921  139.3748  161.0545 C.3     1  UNL1        0.0306
     22 C         139.7810  140.3386  161.6010 C.ar    1  UNL1       -0.0238
     23 C         138.5656  139.8258  162.3151 C.ar    1  UNL1        0.0015
     24 C         137.5545  140.7896  162.8616 C.ar    1  UNL1       -0.0020
     25 C         137.7586  142.2662  162.6940 C.ar    1  UNL1        0.0060
     26 C         138.9740  142.7789  161.9800 C.ar    1  UNL1        0.0748
     27 C         139.9852  141.8151  161.4334 C.ar    1  UNL1        0.0233
     28 C         141.0771  142.6097  160.7804 C.3     1  UNL1        0.2352
     29 O         140.7408  144.0645  160.9234 O.3     1  UNL1       -0.4404
     30 C         139.4410  144.1690  161.6647 C.2     1  UNL1        0.3413
     31 O         138.7326  145.4406  162.0272 O.2     1  UNL1       -0.2449
@<TRIPOS>BOND
     1    21    22    1
     2    22    23   ar
     3    23    18    1
     4    18    19    1
     5    18    17    1
     6    17     1    1
     7     1     2    1
     8     2     3    1
     9     3     4    1
    10     4     5    1
    11     5     6    1
    12     4     7    1
    13     7     8    1
    14     8     9    1
    15     9    11    1
    16    11    12    2
    17    12    13    1
    18    13    14    2
    19    13    15    1
    20    15    16    1
    21     9    10    1
    22    23    24   ar
    23    24    25   ar
    24    25    26   ar
    25    26    27   ar
    26    27    28    1
    27    28    29    1
    28    29    30    1
    29    30    31    2
    30    27    22   ar
    31     6     1    1
    32    16    11    1
    33    30    26    1
    34    10     4    1
    35    19    20    1
@<TRIPOS>MOLECULE
*****
 31 35 0 0 0
SMALL
GASTEIGER

@<TRIPOS>ATOM
      1 N         140.1708  138.4454  163.5988 N.3     1  UNL1       -0.2704
      2 C         141.2861  139.2303  164.2232 C.3     1  UNL1        0.0722
      3 C         141.1502  139.7393  165.6276 C.3     1  UNL1        0.0191
      4 C         139.8990  139.4634  166.4076 C.3     1  UNL1        0.0225
      5 C         138.7837  138.6785  165.7832 C.3     1  UNL1        0.0191
      6 C         138.9196  138.1694  164.3788 C.3     1  UNL1        0.0722
      7 C         138.7138  139.2671  167.3058 C.3     1  UNL1        0.0231
      8 C         139.0068  139.9405  168.6138 C.3     1  UNL1        0.0906
      9 N         140.3731  140.5530  168.5240 N.pl3   1  UNL1       -0.3077
     10 C         140.9246  140.2581  167.1605 C.3     1  UNL1        0.0906
     11 C         141.0663  141.3247  169.6073 C.2     1  UNL1        0.0757
     12 C         142.0728  142.4183  169.4050 C.2     1  UNL1        0.0956
     13 C         142.5033  142.9080  170.7559 C.2     1  UNL1        0.3428
     14 O         143.4993  143.9974  171.0227 O.2     1  UNL1       -0.2448
     15 O         141.7628  142.1170  171.7932 O.3     1  UNL1       -0.4390
     16 C         140.8747  141.1385  171.0833 C.3     1  UNL1        0.2498
     17 C         140.3066  137.9363  162.1943 C.3     1  UNL1        0.1063
     18 C         140.0784  138.8614  161.0359 C.3     1  UNL1        0.1483
     19 O         139.8685  138.3026  159.6598 O.3     1  UNL1       -0.3786
     20 H         139.7365  139.0302  159.0321 H       1  UNL1        0.2108
     21 C         137.5632  140.2113  161.9587 C.3     1  UNL1        0.0306
     22 C         138.8025  141.0204  161.7149 C.ar    1  UNL1       -0.0238
     23 C         140.0601  140.3455  161.2536 C.ar    1  UNL1        0.0015
     24 C         141.2995  141.1546  161.0098 C.ar    1  UNL1       -0.0020
     25 C         141.2812  142.6386  161.2274 C.ar    1  UNL1        0.0060
     26 C         140.0236  143.3135  161.6888 C.ar    1  UNL1        0.0748
     27 C         138.7843  142.5044  161.9326 C.ar    1  UNL1        0.0233
     28 C         137.7007  143.4399  162.3807 C.3     1  UNL1        0.2352
     29 O         138.2704  144.8271  162.4140 O.3     1  UNL1       -0.4404
     30 C         139.7060  144.7490  161.9863 C.2     1  UNL1        0.3413
     31 O         140.6571  145.9036  161.8756 O.2     1  UNL1       -0.2449
@<TRIPOS>BOND
     1    21    22    1
     2    22    23   ar
     3    23    18    1
     4    18    19    1
     5    18    17    1
     6    17     1    1
     7     1     2    1
     8     2     3    1
     9     3     4    1
    10     4     5    1
    11     5     6    1
    12     4     7    1
    13     7     8    1
    14     8     9    1
    15     9    11    1
    16    11    12    2
    17    12    13    1
    18    13    14    2
    19    13    15    1
    20    15    16    1
    21     9    10    1
    22    23    24   ar
    23    24    25   ar
    24    25    26   ar
    25    26    27   ar
    26    27    28    1
    27    28    29    1
    28    29    30    1
    29    30    31    2
    30    27    22   ar
    31     6     1    1
    32    16    11    1
    33    30    26    1
    34    10     4    1
    35    19    20    1
@<TRIPOS>MOLECULE
*****
 31 35 0 0 0
SMALL
GASTEIGER

@<TRIPOS>ATOM
      1 N         139.3382  138.5167  163.0616 N.3     1  UNL1       -0.2704
      2 C         138.7224  139.1343  164.2820 C.3     1  UNL1        0.0722
      3 C         139.5588  139.3764  165.5033 C.3     1  UNL1        0.0191
      4 C         141.0110  139.0007  165.5044 C.3     1  UNL1        0.0225
      5 C         141.6268  138.3830  164.2841 C.3     1  UNL1        0.0191
      6 C         140.7904  138.1410  163.0627 C.3     1  UNL1        0.0722
      7 C         142.4686  138.6789  165.6528 C.3     1  UNL1        0.0231
      8 C         142.8952  139.0864  167.0320 C.3     1  UNL1        0.0906
      9 N         141.7012  139.6599  167.7360 N.pl3   1  UNL1       -0.3077
     10 C         140.5368  139.6070  166.7919 C.3     1  UNL1        0.0906
     11 C         141.6760  140.1928  169.1378 C.2     1  UNL1        0.0757
     12 C         140.6506  141.1277  169.7074 C.2     1  UNL1        0.0956
     13 C         141.0127  141.3971  171.1379 C.2     1  UNL1        0.3428
     14 O         140.2581  142.2799  172.0873 O.2     1  UNL1       -0.2448
     15 O         142.2620  140.6287  171.4525 O.3     1  UNL1       -0.4390
     16 C         142.6719  139.8844  170.2163 C.3     1  UNL1        0.2498
     17 C         138.5018  138.2746  161.8402 C.3     1  UNL1        0.1063
     18 C         137.9193  139.4344  161.0882 C.3     1  UNL1        0.1483
     19 O         136.5338  139.3408  160.5210 O.3     1  UNL1       -0.3786
     20 H         136.3128  140.1701  160.0689 H       1  UNL1        0.2108
     21 C         137.3658  141.8365  162.7980 C.3     1  UNL1        0.0306
     22 C         138.4456  141.8888  161.7582 C.ar    1  UNL1       -0.0238
     23 C         138.7224  140.6878  160.9032 C.ar    1  UNL1        0.0015
     24 C         139.8022  140.7401  159.8634 C.ar    1  UNL1       -0.0020
     25 C         140.6052  141.9935  159.6784 C.ar    1  UNL1        0.0060
     26 C         140.3284  143.1945  160.5333 C.ar    1  UNL1        0.0748
     27 C         139.2486  143.1422  161.5732 C.ar    1  UNL1        0.0233
     28 C         139.2039  144.4737  162.2624 C.3     1  UNL1        0.2352
     29 O         140.2561  145.3490  161.6485 O.3     1  UNL1       -0.4404
     30 C         140.9511  144.5584  160.5799 C.2     1  UNL1        0.3413
     31 O         142.0719  145.0460  159.7105 O.2     1  UNL1       -0.2449
@<TRIPOS>BOND
     1    21    22    1
     2    22    23   ar
     3    23    18    1
     4    18    19    1
     5    18    17    1
     6    17     1    1
     7     1     2    1
     8     2     3    1
     9     3     4    1
    10     4     5    1
    11     5     6    1
    12     4     7    1
    13     7     8    1
    14     8     9    1
    15     9    11    1
    16    11    12    2
    17    12    13    1
    18    13    14    2
    19    13    15    1
    20    15    16    1
    21     9    10    1
    22    23    24   ar
    23    24    25   ar
    24    25    26   ar
    25    26    27   ar
    26    27    28    1
    27    28    29    1
    28    29    30    1
    29    30    31    2
    30    27    22   ar
    31     6     1    1
    32    16    11    1
    33    30    26    1
    34    10     4    1
    35    19    20    1
@<TRIPOS>MOLECULE
*****
 31 35 0 0 0
SMALL
GASTEIGER

@<TRIPOS>ATOM
      1 N         139.0504  138.7423  163.1858 N.3     1  UNL1       -0.2704
      2 C         138.4619  139.3223  164.4377 C.3     1  UNL1        0.0722
      3 C         139.3320  139.5565  165.6368 C.3     1  UNL1        0.0191
      4 C         140.7907  139.2107  165.5841 C.3     1  UNL1        0.0225
      5 C         141.3792  138.6307  164.3322 C.3     1  UNL1        0.0191
      6 C         140.5090  138.3965  163.1331 C.3     1  UNL1        0.0722
      7 C         142.2583  138.9160  165.6795 C.3     1  UNL1        0.0231
      8 C         142.7207  139.3040  167.0528 C.3     1  UNL1        0.0906
      9 N         141.5387  139.8385  167.8061 N.pl3   1  UNL1       -0.3077
     10 C         140.3459  139.7809  166.8984 C.3     1  UNL1        0.0906
     11 C         141.5479  140.3422  169.2189 C.2     1  UNL1        0.0757
     12 C         140.5649  141.3033  169.8187 C.2     1  UNL1        0.0956
     13 C         140.9512  141.5283  171.2505 C.2     1  UNL1        0.3428
     14 O         140.2405  142.4191  172.2260 O.2     1  UNL1       -0.2448
     15 O         142.1731  140.7063  171.5357 O.3     1  UNL1       -0.4390
     16 C         142.5418  139.9732  170.2800 C.3     1  UNL1        0.2498
     17 C         138.1802  138.5080  161.9866 C.3     1  UNL1        0.1063
     18 C         137.7194  139.6689  161.1561 C.3     1  UNL1        0.1483
     19 O         136.5838  139.4969  160.1912 O.3     1  UNL1       -0.3786
     20 H         136.4143  140.3377  159.7382 H       1  UNL1        0.2108
     21 C         140.3102  140.1887  159.7357 C.3     1  UNL1        0.0306
     22 C         139.6895  141.2618  160.5802 C.ar    1  UNL1       -0.0238
     23 C         138.3941  141.0019  161.2904 C.ar    1  UNL1        0.0015
     24 C         137.7734  142.0750  162.1349 C.ar    1  UNL1       -0.0020
     25 C         138.4480  143.4079  162.2692 C.ar    1  UNL1        0.0060
     26 C         139.7434  143.6678  161.5590 C.ar    1  UNL1        0.0748
     27 C         140.3641  142.5947  160.7145 C.ar    1  UNL1        0.0233
     28 C         141.6377  143.1378  160.1373 C.3     1  UNL1        0.2352
     29 O         141.8041  144.5465  160.6251 O.3     1  UNL1       -0.4404
     30 C         140.6333  144.8740  161.5037 C.2     1  UNL1        0.3413
     31 O         140.3944  146.1788  162.2042 O.2     1  UNL1       -0.2449
@<TRIPOS>BOND
     1    21    22    1
     2    22    23   ar
     3    23    18    1
     4    18    19    1
     5    18    17    1
     6    17     1    1
     7     1     2    1
     8     2     3    1
     9     3     4    1
    10     4     5    1
    11     5     6    1
    12     4     7    1
    13     7     8    1
    14     8     9    1
    15     9    11    1
    16    11    12    2
    17    12    13    1
    18    13    14    2
    19    13    15    1
    20    15    16    1
    21     9    10    1
    22    23    24   ar
    23    24    25   ar
    24    25    26   ar
    25    26    27   ar
    26    27    28    1
    27    28    29    1
    28    29    30    1
    29    30    31    2
    30    27    22   ar
    31     6     1    1
    32    16    11    1
    33    30    26    1
    34    10     4    1
    35    19    20    1
@<TRIPOS>MOLECULE
*****
 31 35 0 0 0
SMALL
GASTEIGER

@<TRIPOS>ATOM
      1 N         140.2290  138.3580  163.1418 N.3     1  UNL1       -0.2704
      2 C         139.3214  139.1161  164.0645 C.3     1  UNL1        0.0722
      3 C         139.8098  139.5360  165.4192 C.3     1  UNL1        0.0191
      4 C         141.2059  139.1977  165.8511 C.3     1  UNL1        0.0225
      5 C         142.1135  138.4396  164.9284 C.3     1  UNL1        0.0191
      6 C         141.6251  138.0198  163.5738 C.3     1  UNL1        0.0722
      7 C         142.5690  138.9324  166.4182 C.3     1  UNL1        0.0231
      8 C         142.6226  139.5274  167.7942 C.3     1  UNL1        0.0906
      9 N         141.2924  140.1604  168.0775 N.pl3   1  UNL1       -0.3077
     10 C         140.4169  139.9567  166.8767 C.3     1  UNL1        0.0906
     11 C         140.9058  140.8721  169.3399 C.2     1  UNL1        0.0757
     12 C         139.9850  142.0519  169.4403 C.2     1  UNL1        0.0956
     13 C         139.8821  142.4380  170.8861 C.2     1  UNL1        0.3428
     14 O         139.0654  143.5671  171.4413 O.2     1  UNL1       -0.2448
     15 O         140.7394  141.4969  171.6794 O.3     1  UNL1       -0.4390
     16 C         141.3721  140.5291  170.7237 C.3     1  UNL1        0.2498
     17 C         139.7406  137.9381  161.7871 C.3     1  UNL1        0.1063
     18 C         139.8520  138.8796  160.6247 C.3     1  UNL1        0.1483
     19 O         140.0210  138.3394  159.2356 O.3     1  UNL1       -0.3786
     20 H         140.0763  139.0759  158.6068 H       1  UNL1        0.2108
     21 C         142.3904  140.4567  160.8878 C.3     1  UNL1        0.0306
     22 C         141.0635  141.1498  160.9829 C.ar    1  UNL1       -0.0238
     23 C         139.7943  140.3613  160.8514 C.ar    1  UNL1        0.0015
     24 C         138.4675  141.0544  160.9466 C.ar    1  UNL1       -0.0020
     25 C         138.4098  142.5360  161.1732 C.ar    1  UNL1        0.0060
     26 C         139.6790  143.3245  161.3048 C.ar    1  UNL1        0.0748
     27 C         141.0058  142.6314  161.2096 C.ar    1  UNL1        0.0233
     28 C         142.0811  143.6638  161.3769 C.3     1  UNL1        0.2352
     29 O         141.4188  144.9950  161.5754 O.3     1  UNL1       -0.4404
     30 C         139.9342  144.7852  161.5309 C.2     1  UNL1        0.3413
     31 O         138.8884  145.8494  161.6853 O.2     1  UNL1       -0.2449
@<TRIPOS>BOND
     1    21    22    1
     2    22    23   ar
     3    23    18    1
     4    18    19    1
     5    18    17    1
     6    17     1    1
     7     1     2    1
     8     2     3    1
     9     3     4    1
    10     4     5    1
    11     5     6    1
    12     4     7    1
    13     7     8    1
    14     8     9    1
    15     9    11    1
    16    11    12    2
    17    12    13    1
    18    13    14    2
    19    13    15    1
    20    15    16    1
    21     9    10    1
    22    23    24   ar
    23    24    25   ar
    24    25    26   ar
    25    26    27   ar
    26    27    28    1
    27    28    29    1
    28    29    30    1
    29    30    31    2
    30    27    22   ar
    31     6     1    1
    32    16    11    1
    33    30    26    1
    34    10     4    1
    35    19    20    1
@<TRIPOS>MOLECULE
*****
 31 35 0 0 0
SMALL
GASTEIGER

@<TRIPOS>ATOM
      1 N         139.9193  137.8124  164.1569 N.3     1  UNL1       -0.2704
      2 C         139.4595  137.8013  162.7292 C.3     1  UNL1        0.0722
      3 C         140.4474  138.0172  161.6214 C.3     1  UNL1        0.0191
      4 C         141.8952  138.2441  161.9413 C.3     1  UNL1        0.0225
      5 C         142.3551  138.2551  163.3690 C.3     1  UNL1        0.0191
      6 C         141.3671  138.0393  164.4768 C.3     1  UNL1        0.0722
      7 C         143.3670  138.4821  162.1064 C.3     1  UNL1        0.0231
      8 C         143.9664  138.6450  160.7410 C.3     1  UNL1        0.0906
      9 N         142.8649  138.5076  159.7319 N.pl3   1  UNL1       -0.3077
     10 C         141.5850  138.2599  160.4738 C.3     1  UNL1        0.0906
     11 C         143.0168  138.6015  158.2427 C.2     1  UNL1        0.0757
     12 C         142.8003  137.4871  157.2624 C.2     1  UNL1        0.0956
     13 C         143.0616  138.0231  155.8860 C.2     1  UNL1        0.3428
     14 O         142.9623  137.2493  154.6048 O.2     1  UNL1       -0.2448
     15 O         143.4396  139.4689  156.0156 O.3     1  UNL1       -0.4390
     16 C         143.4119  139.8264  157.4722 C.3     1  UNL1        0.2498
     17 C         138.9313  137.5965  165.2648 C.3     1  UNL1        0.1063
     18 C         138.1831  138.7622  165.8402 C.3     1  UNL1        0.1483
     19 O         137.3066  138.5713  167.0424 O.3     1  UNL1       -0.3786
     20 H         136.8995  139.4181  167.2835 H       1  UNL1        0.2108
     21 C         140.0644  140.7841  167.0121 C.3     1  UNL1        0.0306
     22 C         139.2521  141.1299  165.7994 C.ar    1  UNL1       -0.0238
     23 C         138.3115  140.1190  165.2135 C.ar    1  UNL1        0.0015
     24 C         137.4992  140.4649  164.0008 C.ar    1  UNL1       -0.0020
     25 C         137.6275  141.8216  163.3741 C.ar    1  UNL1        0.0060
     26 C         138.5681  142.8324  163.9600 C.ar    1  UNL1        0.0748
     27 C         139.3804  142.4866  165.1726 C.ar    1  UNL1        0.0233
     28 C         140.2184  143.6798  165.5249 C.3     1  UNL1        0.2352
     29 O         139.9240  144.7631  164.5300 O.3     1  UNL1       -0.4404
     30 C         138.9040  144.2394  163.5629 C.2     1  UNL1        0.3413
     31 O         138.3222  144.9907  162.4022 O.2     1  UNL1       -0.2449
@<TRIPOS>BOND
     1    21    22    1
     2    22    23   ar
     3    23    18    1
     4    18    19    1
     5    18    17    1
     6    17     1    1
     7     1     2    1
     8     2     3    1
     9     3     4    1
    10     4     5    1
    11     5     6    1
    12     4     7    1
    13     7     8    1
    14     8     9    1
    15     9    11    1
    16    11    12    2
    17    12    13    1
    18    13    14    2
    19    13    15    1
    20    15    16    1
    21     9    10    1
    22    23    24   ar
    23    24    25   ar
    24    25    26   ar
    25    26    27   ar
    26    27    28    1
    27    28    29    1
    28    29    30    1
    29    30    31    2
    30    27    22   ar
    31     6     1    1
    32    16    11    1
    33    30    26    1
    34    10     4    1
    35    19    20    1
@<TRIPOS>MOLECULE
*****
 31 35 0 0 0
SMALL
GASTEIGER

@<TRIPOS>ATOM
      1 N         144.3558  141.4280  163.3107 N.3     1  UNL1       -0.2704
      2 C         143.8611  142.5122  164.2217 C.3     1  UNL1        0.0722
      3 C         143.2762  142.1605  165.5574 C.3     1  UNL1        0.0191
      4 C         143.1861  140.7248  165.9822 C.3     1  UNL1        0.0225
      5 C         143.6808  139.6406  165.0713 C.3     1  UNL1        0.0191
      6 C         144.2656  139.9923  163.7355 C.3     1  UNL1        0.0722
      7 C         143.0313  139.3411  166.5403 C.3     1  UNL1        0.0231
      8 C         142.4029  139.4562  167.8975 C.3     1  UNL1        0.0906
      9 N         142.1693  140.9112  168.1782 N.pl3   1  UNL1       -0.3077
     10 C         142.6533  141.6951  166.9945 C.3     1  UNL1        0.0906
     11 C         141.5589  141.4818  169.4238 C.2     1  UNL1        0.0757
     12 C         140.3271  142.3352  169.4909 C.2     1  UNL1        0.0956
     13 C         140.0800  142.6801  170.9296 C.2     1  UNL1        0.3428
     14 O         138.9518  143.5181  171.4542 O.2     1  UNL1       -0.2448
     15 O         141.1590  142.0400  171.7518 O.3     1  UNL1       -0.4390
     16 C         142.0730  141.2994  170.8210 C.3     1  UNL1        0.2498
     17 C         144.9406  141.7796  161.9749 C.3     1  UNL1        0.1063
     18 C         144.0585  142.3197  160.8886 C.3     1  UNL1        0.1483
     19 O         144.5952  142.4808  159.4972 O.3     1  UNL1       -0.3786
     20 H         143.9009  142.8391  158.9223 H       1  UNL1        0.2108
     21 C         141.8860  140.2575  160.7222 C.3     1  UNL1        0.0306
     22 C         141.5533  141.6676  161.1105 C.ar    1  UNL1       -0.0238
     23 C         142.6395  142.6987  161.1937 C.ar    1  UNL1        0.0015
     24 C         142.3068  144.1089  161.5820 C.ar    1  UNL1       -0.0020
     25 C         140.8880  144.4879  161.8871 C.ar    1  UNL1        0.0060
     26 C         139.8018  143.4568  161.8039 C.ar    1  UNL1        0.0748
     27 C         140.1345  142.0466  161.4156 C.ar    1  UNL1        0.0233
     28 C         138.8617  141.2528  161.4174 C.3     1  UNL1        0.2352
     29 O         137.7424  142.1723  161.8068 O.3     1  UNL1       -0.4404
     30 C         138.3234  143.5345  162.0457 C.2     1  UNL1        0.3413
     31 O         137.5601  144.7593  162.4546 O.2     1  UNL1       -0.2449
@<TRIPOS>BOND
     1    21    22    1
     2    22    23   ar
     3    23    18    1
     4    18    19    1
     5    18    17    1
     6    17     1    1
     7     1     2    1
     8     2     3    1
     9     3     4    1
    10     4     5    1
    11     5     6    1
    12     4     7    1
    13     7     8    1
    14     8     9    1
    15     9    11    1
    16    11    12    2
    17    12    13    1
    18    13    14    2
    19    13    15    1
    20    15    16    1
    21     9    10    1
    22    23    24   ar
    23    24    25   ar
    24    25    26   ar
    25    26    27   ar
    26    27    28    1
    27    28    29    1
    28    29    30    1
    29    30    31    2
    30    27    22   ar
    31     6     1    1
    32    16    11    1
    33    30    26    1
    34    10     4    1
    35    19    20    1
@<TRIPOS>MOLECULE
*****
 31 35 0 0 0
SMALL
GASTEIGER

@<TRIPOS>ATOM
      1 N         138.3006  141.9868  163.1815 N.3     1  UNL1       -0.2704
      2 C         139.0912  142.9679  163.9953 C.3     1  UNL1        0.0722
      3 C         139.5543  142.5983  165.3733 C.3     1  UNL1        0.0191
      4 C         139.2267  141.2476  165.9375 C.3     1  UNL1        0.0225
      5 C         138.4361  140.2665  165.1237 C.3     1  UNL1        0.0191
      6 C         137.9731  140.6361  163.7457 C.3     1  UNL1        0.0722
      7 C         138.9766  139.9412  166.6309 C.3     1  UNL1        0.0231
      8 C         139.6166  140.0057  167.9861 C.3     1  UNL1        0.0906
      9 N         140.2622  141.3520  168.1302 N.pl3   1  UNL1       -0.3077
     10 C         140.0212  142.1195  166.8641 C.3     1  UNL1        0.0906
     11 C         141.0162  141.8443  169.3297 C.2     1  UNL1        0.0757
     12 C         142.1083  142.8725  169.3236 C.2     1  UNL1        0.0956
     13 C         142.5777  143.0585  170.7361 C.2     1  UNL1        0.3428
     14 O         143.6592  143.9937  171.1899 O.2     1  UNL1       -0.2448
     15 O         141.7757  142.1453  171.6152 O.3     1  UNL1       -0.4390
     16 C         140.8106  141.3949  170.7459 C.3     1  UNL1        0.2498
     17 C         137.8375  142.3564  161.8034 C.3     1  UNL1        0.1063
     18 C         138.7562  142.1797  160.6309 C.3     1  UNL1        0.1483
     19 O         138.4322  142.8315  159.3193 O.3     1  UNL1       -0.3786
     20 H         139.1232  142.6182  158.6729 H       1  UNL1        0.2108
     21 C         141.3900  143.5067  161.1805 C.3     1  UNL1        0.0306
     22 C         141.3158  142.0147  161.0448 C.ar    1  UNL1       -0.0238
     23 C         139.9990  141.3512  160.7700 C.ar    1  UNL1        0.0015
     24 C         139.9247  139.8592  160.6342 C.ar    1  UNL1       -0.0020
     25 C         141.1674  139.0307  160.7733 C.ar    1  UNL1        0.0060
     26 C         142.4843  139.6942  161.0480 C.ar    1  UNL1        0.0748
     27 C         142.5585  141.1862  161.1838 C.ar    1  UNL1        0.0233
     28 C         143.9869  141.5567  161.4530 C.3     1  UNL1        0.2352
     29 O         144.7955  140.2937  161.4836 O.3     1  UNL1       -0.4404
     30 C         143.8668  139.1426  161.2333 C.2     1  UNL1        0.3413
     31 O         144.2528  137.6942  161.1781 O.2     1  UNL1       -0.2449
@<TRIPOS>BOND
     1    21    22    1
     2    22    23   ar
     3    23    18    1
     4    18    19    1
     5    18    17    1
     6    17     1    1
     7     1     2    1
     8     2     3    1
     9     3     4    1
    10     4     5    1
    11     5     6    1
    12     4     7    1
    13     7     8    1
    14     8     9    1
    15     9    11    1
    16    11    12    2
    17    12    13    1
    18    13    14    2
    19    13    15    1
    20    15    16    1
    21     9    10    1
    22    23    24   ar
    23    24    25   ar
    24    25    26   ar
    25    26    27   ar
    26    27    28    1
    27    28    29    1
    28    29    30    1
    29    30    31    2
    30    27    22   ar
    31     6     1    1
    32    16    11    1
    33    30    26    1
    34    10     4    1
    35    19    20    1
@<TRIPOS>MOLECULE
*****
 31 35 0 0 0
SMALL
GASTEIGER

@<TRIPOS>ATOM
      1 N         138.3741  142.2082  162.4428 N.3     1  UNL1       -0.2704
      2 C         139.1664  142.9046  163.5091 C.3     1  UNL1        0.0722
      3 C         139.3834  142.2405  164.8365 C.3     1  UNL1        0.0191
      4 C         138.8080  140.8801  165.0974 C.3     1  UNL1        0.0225
      5 C         138.0156  140.1837  164.0311 C.3     1  UNL1        0.0191
      6 C         137.7986  140.8478  162.7037 C.3     1  UNL1        0.0722
      7 C         138.2966  139.5291  165.5015 C.3     1  UNL1        0.0231
      8 C         138.7470  139.2644  166.9077 C.3     1  UNL1        0.0906
      9 N         139.5368  140.4520  167.3726 N.pl3   1  UNL1       -0.3077
     10 C         139.5744  141.4505  166.2539 C.3     1  UNL1        0.0906
     11 C         140.1765  140.6127  168.7198 C.2     1  UNL1        0.0757
     12 C         139.7612  141.5865  169.7824 C.2     1  UNL1        0.0956
     13 C         140.6719  141.4035  170.9602 C.2     1  UNL1        0.3428
     14 O         140.6145  142.1725  172.2469 O.2     1  UNL1       -0.2448
     15 O         141.6500  140.3167  170.6256 O.3     1  UNL1       -0.4390
     16 C         141.3437  139.8279  169.2408 C.3     1  UNL1        0.2498
     17 C         138.1571  142.8723  161.1153 C.3     1  UNL1        0.1063
     18 C         139.3025  143.0310  160.1600 C.3     1  UNL1        0.1483
     19 O         139.5640  144.3607  159.5169 O.3     1  UNL1       -0.3786
     20 H         140.3347  144.2910  158.9320 H       1  UNL1        0.2108
     21 C         142.0285  142.8372  161.3975 C.3     1  UNL1        0.0306
     22 C         141.5494  141.7631  160.4664 C.ar    1  UNL1       -0.0238
     23 C         140.1864  141.8600  159.8476 C.ar    1  UNL1        0.0015
     24 C         139.7074  140.7860  158.9165 C.ar    1  UNL1       -0.0020
     25 C         140.5913  139.6151  158.6042 C.ar    1  UNL1        0.0060
     26 C         141.9542  139.5182  159.2230 C.ar    1  UNL1        0.0748
     27 C         142.4333  140.5922  160.1541 C.ar    1  UNL1        0.0233
     28 C         143.8151  140.2279  160.6101 C.3     1  UNL1        0.2352
     29 O         144.1900  138.9287  159.9608 O.3     1  UNL1       -0.4404
     30 C         143.0399  138.4901  159.1035 C.2     1  UNL1        0.3413
     31 O         142.9852  137.2424  158.2727 O.2     1  UNL1       -0.2449
@<TRIPOS>BOND
     1    21    22    1
     2    22    23   ar
     3    23    18    1
     4    18    19    1
     5    18    17    1
     6    17     1    1
     7     1     2    1
     8     2     3    1
     9     3     4    1
    10     4     5    1
    11     5     6    1
    12     4     7    1
    13     7     8    1
    14     8     9    1
    15     9    11    1
    16    11    12    2
    17    12    13    1
    18    13    14    2
    19    13    15    1
    20    15    16    1
    21     9    10    1
    22    23    24   ar
    23    24    25   ar
    24    25    26   ar
    25    26    27   ar
    26    27    28    1
    27    28    29    1
    28    29    30    1
    29    30    31    2
    30    27    22   ar
    31     6     1    1
    32    16    11    1
    33    30    26    1
    34    10     4    1
    35    19    20    1
