@<TRIPOS>MOLECULE
*****
 30 33 0 0 0
SMALL
GASTEIGER

@<TRIPOS>ATOM
      1 C         138.8837  138.6740  163.5292 C.ar    1  UNL1        0.1453
      2 C         138.4559  140.0056  162.9871 C.ar    1  UNL1        0.0372
      3 C         138.8075  140.3909  161.5807 C.ar    1  UNL1        0.0002
      4 C         139.5869  139.4447  160.7164 C.ar    1  UNL1       -0.0059
      5 C         140.0147  138.1130  161.2584 C.ar    1  UNL1        0.0002
      6 C         139.6631  137.7277  162.6647 C.ar    1  UNL1        0.0372
      7 O         138.5321  138.2886  164.9355 O.3     1  UNL1       -0.4535
      8 C         140.2936  140.5597  168.3980 C.ar    1  UNL1        0.1470
      9 C         141.0580  140.4399  167.1131 C.ar    1  UNL1        0.0403
     10 C         140.4708  139.6828  165.9589 C.ar    1  UNL1        0.0406
     11 C         139.1193  139.0456  166.0897 C.ar    1  UNL1        0.1455
     12 C         138.3549  139.1654  167.3747 C.ar    1  UNL1        0.0406
     13 C         138.9420  139.9225  168.5289 C.ar    1  UNL1        0.0403
     14 O         140.8807  141.3167  169.5522 O.3     1  UNL1       -0.4045
     15 F         140.4073  144.2682  169.8067 F       1  UNL1       -0.1328
     16 C         140.6440  142.7924  169.6795 C.3     1  UNL1        0.5753
     17 F         141.9482  143.0611  168.9889 F       1  UNL1       -0.1328
     18 F         139.3399  142.5237  170.3700 F       1  UNL1       -0.1328
     19 C         139.9385  139.8300  159.3101 C.3     1  UNL1        0.0992
     20 N         140.5652  138.8237  158.3910 N.3     1  UNL1       -0.2688
     21 C         139.7241  138.1111  157.3737 C.3     1  UNL1        0.0748
     22 C         140.3508  137.1047  156.4546 C.3     1  UNL1        0.0446
     23 C         141.8185  136.8110  156.5529 C.3     1  UNL1        0.0954
     24 C         140.9774  136.0984  155.5356 C.3     1  UNL1        0.0274
     25 C         141.6041  135.0921  154.6166 C.3     1  UNL1        0.0050
     26 C         143.0718  134.7984  154.7149 C.3     1  UNL1        0.0321
     27 C         143.9128  135.5109  155.7322 C.3     1  UNL1        0.1419
     28 O         143.2861  136.5172  156.6512 O.3     1  UNL1       -0.3584
     29 C         142.6595  137.5236  157.5703 C.3     1  UNL1        0.0446
     30 C         142.0328  138.5299  158.4893 C.3     1  UNL1        0.0748
@<TRIPOS>BOND
     1    15    16    1
     2    16    17    1
     3    16    18    1
     4    16    14    1
     5    14     8    1
     6     8     9   ar
     7     9    10   ar
     8    10    11   ar
     9    11     7    1
    10     7     1    1
    11     1     2   ar
    12     2     3   ar
    13     3     4   ar
    14     4    19    1
    15    19    20    1
    16    20    21    1
    17    21    22    1
    18    22    23    1
    19    23    24    1
    20    24    25    1
    21    25    26    1
    22    26    27    1
    23    27    28    1
    24    23    29    1
    25    29    30    1
    26     4     5   ar
    27     5     6   ar
    28    11    12   ar
    29    12    13   ar
    30    13     8   ar
    31     6     1   ar
    32    30    20    1
    33    28    23    1
@<TRIPOS>MOLECULE
*****
 30 33 0 0 0
SMALL
GASTEIGER

@<TRIPOS>ATOM
      1 C         140.3693  138.6552  158.6171 C.ar    1  UNL1        0.1453
      2 C         139.6821  138.0913  157.4089 C.ar    1  UNL1        0.0372
      3 C         140.4395  137.2144  156.4562 C.ar    1  UNL1        0.0002
      4 C         141.8840  136.9013  156.7118 C.ar    1  UNL1       -0.0059
      5 C         142.5712  137.4652  157.9201 C.ar    1  UNL1        0.0002
      6 C         141.8139  138.3421  158.8727 C.ar    1  UNL1        0.0372
      7 O         139.6121  139.5321  159.5697 O.3     1  UNL1       -0.4535
      8 C         139.6227  138.6062  163.9734 C.ar    1  UNL1        0.1470
      9 C         140.4015  139.7770  163.4513 C.ar    1  UNL1        0.0403
     10 C         140.3979  140.0857  161.9834 C.ar    1  UNL1        0.0406
     11 C         139.6156  139.2235  161.0376 C.ar    1  UNL1        0.1455
     12 C         138.8368  138.0527  161.5597 C.ar    1  UNL1        0.0406
     13 C         138.8403  137.7441  163.0276 C.ar    1  UNL1        0.0403
     14 O         139.6262  138.2976  165.4413 O.3     1  UNL1       -0.4045
     15 F         137.1306  138.6825  167.0611 F       1  UNL1       -0.1328
     16 C         138.3784  138.4901  166.2512 C.3     1  UNL1        0.5753
     17 F         138.6809  139.9544  166.3693 F       1  UNL1       -0.1328
     18 F         138.0759  137.0257  166.1331 F       1  UNL1       -0.1328
     19 C         142.6413  136.0244  155.7593 C.3     1  UNL1        0.0992
     20 N         142.8544  134.5750  156.0819 N.3     1  UNL1       -0.2688
     21 C         143.9431  134.1702  157.0309 C.3     1  UNL1        0.0748
     22 C         144.1563  132.7208  157.3535 C.3     1  UNL1        0.0446
     23 C         143.2806  131.6764  156.7271 C.3     1  UNL1        0.0954
     24 C         144.3694  131.2715  157.6761 C.3     1  UNL1        0.0274
     25 C         144.5824  129.8222  157.9986 C.3     1  UNL1        0.0050
     26 C         143.7067  128.7778  157.3723 C.3     1  UNL1        0.0321
     27 C         142.6180  129.1827  156.4233 C.3     1  UNL1        0.1419
     28 O         142.4049  130.6320  156.1007 O.3     1  UNL1       -0.3584
     29 C         142.1918  132.0813  155.7781 C.3     1  UNL1        0.0446
     30 C         141.9787  133.5306  155.4555 C.3     1  UNL1        0.0748
@<TRIPOS>BOND
     1    15    16    1
     2    16    17    1
     3    16    18    1
     4    16    14    1
     5    14     8    1
     6     8     9   ar
     7     9    10   ar
     8    10    11   ar
     9    11     7    1
    10     7     1    1
    11     1     2   ar
    12     2     3   ar
    13     3     4   ar
    14     4    19    1
    15    19    20    1
    16    20    21    1
    17    21    22    1
    18    22    23    1
    19    23    24    1
    20    24    25    1
    21    25    26    1
    22    26    27    1
    23    27    28    1
    24    23    29    1
    25    29    30    1
    26     4     5   ar
    27     5     6   ar
    28    11    12   ar
    29    12    13   ar
    30    13     8   ar
    31     6     1   ar
    32    30    20    1
    33    28    23    1
@<TRIPOS>MOLECULE
*****
 30 33 0 0 0
SMALL
GASTEIGER

@<TRIPOS>ATOM
      1 C         138.9197  139.1523  160.9728 C.ar    1  UNL1        0.1453
      2 C         139.4845  137.9163  161.6079 C.ar    1  UNL1        0.0372
      3 C         139.3729  137.7169  163.0904 C.ar    1  UNL1        0.0002
      4 C         138.6965  138.7534  163.9378 C.ar    1  UNL1       -0.0059
      5 C         138.1317  139.9894  163.3027 C.ar    1  UNL1        0.0002
      6 C         138.2433  140.1889  161.8203 C.ar    1  UNL1        0.0372
      7 O         139.0312  139.3518  159.4903 O.3     1  UNL1       -0.4535
      8 C         142.4830  137.5537  157.2316 C.ar    1  UNL1        0.1470
      9 C         142.7409  138.4524  158.4045 C.ar    1  UNL1        0.0403
     10 C         141.5903  139.0517  159.1574 C.ar    1  UNL1        0.0406
     11 C         140.1818  138.7524  158.7374 C.ar    1  UNL1        0.1455
     12 C         139.9239  137.8537  157.5645 C.ar    1  UNL1        0.0406
     13 C         141.0745  137.2543  156.8116 C.ar    1  UNL1        0.0403
     14 O         143.6336  136.9543  156.4786 O.3     1  UNL1       -0.4045
     15 F         143.5812  134.0522  155.7202 F       1  UNL1       -0.1328
     16 C         143.6074  135.5033  156.0995 C.3     1  UNL1        0.5753
     17 F         143.5102  135.1265  157.5481 F       1  UNL1       -0.1328
     18 F         143.7046  135.8801  154.6509 F       1  UNL1       -0.1328
     19 C         138.5850  138.5539  165.4203 C.3     1  UNL1        0.0992
     20 N         139.4322  139.3684  166.3525 N.3     1  UNL1       -0.2688
     21 C         140.7616  139.8909  165.8947 C.3     1  UNL1        0.0748
     22 C         141.6088  140.7053  166.8269 C.3     1  UNL1        0.0446
     23 C         141.1265  140.9972  168.2169 C.3     1  UNL1        0.0954
     24 C         142.4559  141.5197  167.7591 C.3     1  UNL1        0.0274
     25 C         143.3031  142.3341  168.6913 C.3     1  UNL1        0.0050
     26 C         142.8208  142.6260  170.0814 C.3     1  UNL1        0.0321
     27 C         141.4914  142.1034  170.5392 C.3     1  UNL1        0.1419
     28 O         140.6443  141.2890  169.6070 O.3     1  UNL1       -0.3584
     29 C         139.7971  140.4746  168.6748 C.3     1  UNL1        0.0446
     30 C         138.9499  139.6602  167.7425 C.3     1  UNL1        0.0748
@<TRIPOS>BOND
     1    15    16    1
     2    16    17    1
     3    16    18    1
     4    16    14    1
     5    14     8    1
     6     8     9   ar
     7     9    10   ar
     8    10    11   ar
     9    11     7    1
    10     7     1    1
    11     1     2   ar
    12     2     3   ar
    13     3     4   ar
    14     4    19    1
    15    19    20    1
    16    20    21    1
    17    21    22    1
    18    22    23    1
    19    23    24    1
    20    24    25    1
    21    25    26    1
    22    26    27    1
    23    27    28    1
    24    23    29    1
    25    29    30    1
    26     4     5   ar
    27     5     6   ar
    28    11    12   ar
    29    12    13   ar
    30    13     8   ar
    31     6     1   ar
    32    30    20    1
    33    28    23    1
@<TRIPOS>MOLECULE
*****
 30 33 0 0 0
SMALL
GASTEIGER

@<TRIPOS>ATOM
      1 C         142.0558  136.9071  156.6070 C.ar    1  UNL1        0.1453
      2 C         142.5774  137.7703  157.7173 C.ar    1  UNL1        0.0372
      3 C         141.6422  138.6683  158.4717 C.ar    1  UNL1        0.0002
      4 C         140.1854  138.7030  158.1159 C.ar    1  UNL1       -0.0059
      5 C         139.6638  137.8397  157.0057 C.ar    1  UNL1        0.0002
      6 C         140.5989  136.9417  156.2512 C.ar    1  UNL1        0.0372
      7 O         142.9909  136.0091  155.8526 O.3     1  UNL1       -0.4535
      8 C         142.9938  131.5809  156.6531 C.ar    1  UNL1        0.1470
      9 C         141.9713  132.1756  155.7308 C.ar    1  UNL1        0.0403
     10 C         141.9704  133.6517  155.4639 C.ar    1  UNL1        0.0406
     11 C         142.9918  134.5330  156.1194 C.ar    1  UNL1        0.1455
     12 C         144.0143  133.9383  157.0418 C.ar    1  UNL1        0.0406
     13 C         144.0153  132.4622  157.3087 C.ar    1  UNL1        0.0403
     14 O         142.9947  130.1048  156.9200 O.3     1  UNL1       -0.4045
     15 F         145.2527  128.8591  158.4529 F       1  UNL1       -0.1328
     16 C         144.1237  129.4820  157.6864 C.3     1  UNL1        0.5753
     17 F         143.2650  129.4380  158.9155 F       1  UNL1       -0.1328
     18 F         144.9824  129.5260  156.4574 F       1  UNL1       -0.1328
     19 C         139.2503  139.6009  158.8703 C.3     1  UNL1        0.0992
     20 N         139.0666  139.4208  160.3482 N.3     1  UNL1       -0.2688
     21 C         139.2337  138.0637  160.9648 C.3     1  UNL1        0.0748
     22 C         139.0500  137.8836  162.4427 C.3     1  UNL1        0.0446
     23 C         138.6991  139.0607  163.3037 C.3     1  UNL1        0.0954
     24 C         138.8663  137.7036  163.9204 C.3     1  UNL1        0.0274
     25 C         138.6825  137.5235  165.3982 C.3     1  UNL1        0.0050
     26 C         138.3316  138.7006  166.2592 C.3     1  UNL1        0.0321
     27 C         138.1645  140.0577  165.6425 C.3     1  UNL1        0.1419
     28 O         138.3482  140.2377  164.1648 O.3     1  UNL1       -0.3584
     29 C         138.5319  140.4178  162.6870 C.3     1  UNL1        0.0446
     30 C         138.7157  140.5978  161.2092 C.3     1  UNL1        0.0748
@<TRIPOS>BOND
     1    15    16    1
     2    16    17    1
     3    16    18    1
     4    16    14    1
     5    14     8    1
     6     8     9   ar
     7     9    10   ar
     8    10    11   ar
     9    11     7    1
    10     7     1    1
    11     1     2   ar
    12     2     3   ar
    13     3     4   ar
    14     4    19    1
    15    19    20    1
    16    20    21    1
    17    21    22    1
    18    22    23    1
    19    23    24    1
    20    24    25    1
    21    25    26    1
    22    26    27    1
    23    27    28    1
    24    23    29    1
    25    29    30    1
    26     4     5   ar
    27     5     6   ar
    28    11    12   ar
    29    12    13   ar
    30    13     8   ar
    31     6     1   ar
    32    30    20    1
    33    28    23    1
@<TRIPOS>MOLECULE
*****
 30 33 0 0 0
SMALL
GASTEIGER

@<TRIPOS>ATOM
      1 C         140.2608  139.0075  159.2976 C.ar    1  UNL1        0.1453
      2 C         141.6957  138.7815  159.6717 C.ar    1  UNL1        0.0372
      3 C         142.5935  137.9970  158.7613 C.ar    1  UNL1        0.0002
      4 C         142.0563  137.4385  157.4770 C.ar    1  UNL1       -0.0059
      5 C         140.6214  137.6645  157.1029 C.ar    1  UNL1        0.0002
      6 C         139.7236  138.4490  158.0132 C.ar    1  UNL1        0.0372
      7 O         139.3630  139.7919  160.2078 O.3     1  UNL1       -0.4535
      8 C         138.7524  138.4588  164.4622 C.ar    1  UNL1        0.1470
      9 C         139.2038  137.4737  163.4250 C.ar    1  UNL1        0.0403
     10 C         139.4073  137.9181  162.0069 C.ar    1  UNL1        0.0406
     11 C         139.1595  139.3476  161.6260 C.ar    1  UNL1        0.1455
     12 C         138.7081  140.3326  162.6632 C.ar    1  UNL1        0.0406
     13 C         138.5045  139.8883  164.0813 C.ar    1  UNL1        0.0403
     14 O         138.5488  138.0144  165.8804 O.3     1  UNL1       -0.4045
     15 F         138.6337  140.0218  168.1082 F       1  UNL1       -0.1328
     16 C         138.5913  139.0181  166.9943 C.3     1  UNL1        0.5753
     17 F         140.0113  139.3489  166.6420 F       1  UNL1       -0.1328
     18 F         137.1713  138.6872  167.3465 F       1  UNL1       -0.1328
     19 C         142.9541  136.6541  156.5668 C.3     1  UNL1        0.0992
     20 N         142.7822  135.1692  156.4409 N.3     1  UNL1       -0.2688
     21 C         141.8003  134.6088  155.4551 C.3     1  UNL1        0.0748
     22 C         141.6283  133.1240  155.3292 C.3     1  UNL1        0.0446
     23 C         142.4383  132.1996  156.1891 C.3     1  UNL1        0.0954
     24 C         141.4565  131.6392  155.2034 C.3     1  UNL1        0.0274
     25 C         141.2846  130.1544  155.0775 C.3     1  UNL1        0.0050
     26 C         142.0946  129.2301  155.9375 C.3     1  UNL1        0.0321
     27 C         143.0765  129.7905  156.9232 C.3     1  UNL1        0.1419
     28 O         143.2484  131.2753  157.0491 O.3     1  UNL1       -0.3584
     29 C         143.4203  132.7601  157.1750 C.3     1  UNL1        0.0446
     30 C         143.5922  134.2449  157.3008 C.3     1  UNL1        0.0748
@<TRIPOS>BOND
     1    15    16    1
     2    16    17    1
     3    16    18    1
     4    16    14    1
     5    14     8    1
     6     8     9   ar
     7     9    10   ar
     8    10    11   ar
     9    11     7    1
    10     7     1    1
    11     1     2   ar
    12     2     3   ar
    13     3     4   ar
    14     4    19    1
    15    19    20    1
    16    20    21    1
    17    21    22    1
    18    22    23    1
    19    23    24    1
    20    24    25    1
    21    25    26    1
    22    26    27    1
    23    27    28    1
    24    23    29    1
    25    29    30    1
    26     4     5   ar
    27     5     6   ar
    28    11    12   ar
    29    12    13   ar
    30    13     8   ar
    31     6     1   ar
    32    30    20    1
    33    28    23    1
@<TRIPOS>MOLECULE
*****
 30 33 0 0 0
SMALL
GASTEIGER

@<TRIPOS>ATOM
      1 C         141.9654  138.6083  163.8910 C.ar    1  UNL1        0.1453
      2 C         142.4511  139.8609  163.2239 C.ar    1  UNL1        0.0372
      3 C         142.0653  140.1524  161.8040 C.ar    1  UNL1        0.0002
      4 C         141.1936  139.1914  161.0512 C.ar    1  UNL1       -0.0059
      5 C         140.7078  137.9388  161.7183 C.ar    1  UNL1        0.0002
      6 C         141.0937  137.6472  163.1382 C.ar    1  UNL1        0.0372
      7 O         142.3512  138.3167  165.3109 O.3     1  UNL1       -0.4535
      8 C         140.7430  140.8699  168.6492 C.ar    1  UNL1        0.1470
      9 C         142.1542  140.3648  168.7045 C.ar    1  UNL1        0.0403
     10 C         142.6903  139.5137  167.5917 C.ar    1  UNL1        0.0406
     11 C         141.8151  139.1678  166.4237 C.ar    1  UNL1        0.1455
     12 C         140.4038  139.6729  166.3684 C.ar    1  UNL1        0.0406
     13 C         139.8678  140.5240  167.4812 C.ar    1  UNL1        0.0403
     14 O         140.2069  141.7210  169.7620 O.3     1  UNL1       -0.4045
     15 F         141.3839  144.4319  170.2777 F       1  UNL1       -0.1328
     16 C         140.7954  143.0764  170.0199 C.3     1  UNL1        0.5753
     17 F         140.0752  143.6173  168.8204 F       1  UNL1       -0.1328
     18 F         141.5156  142.5356  171.2193 F       1  UNL1       -0.1328
     19 C         140.8078  139.4830  159.6314 C.3     1  UNL1        0.0992
     20 N         141.1427  138.5025  158.5466 N.3     1  UNL1       -0.2688
     21 C         140.1057  138.1244  157.5310 C.3     1  UNL1        0.0748
     22 C         140.4406  137.1439  156.4463 C.3     1  UNL1        0.0446
     23 C         141.8127  136.5416  156.3773 C.3     1  UNL1        0.0954
     24 C         140.7756  136.1635  155.3617 C.3     1  UNL1        0.0274
     25 C         141.1106  135.1831  154.2770 C.3     1  UNL1        0.0050
     26 C         142.4826  134.5807  154.2080 C.3     1  UNL1        0.0321
     27 C         143.5197  134.9589  155.2236 C.3     1  UNL1        0.1419
     28 O         143.1847  135.9393  156.3082 O.3     1  UNL1       -0.3584
     29 C         142.8497  136.9198  157.3930 C.3     1  UNL1        0.0446
     30 C         142.5148  137.9002  158.4776 C.3     1  UNL1        0.0748
@<TRIPOS>BOND
     1    15    16    1
     2    16    17    1
     3    16    18    1
     4    16    14    1
     5    14     8    1
     6     8     9   ar
     7     9    10   ar
     8    10    11   ar
     9    11     7    1
    10     7     1    1
    11     1     2   ar
    12     2     3   ar
    13     3     4   ar
    14     4    19    1
    15    19    20    1
    16    20    21    1
    17    21    22    1
    18    22    23    1
    19    23    24    1
    20    24    25    1
    21    25    26    1
    22    26    27    1
    23    27    28    1
    24    23    29    1
    25    29    30    1
    26     4     5   ar
    27     5     6   ar
    28    11    12   ar
    29    12    13   ar
    30    13     8   ar
    31     6     1   ar
    32    30    20    1
    33    28    23    1
@<TRIPOS>MOLECULE
*****
 30 33 0 0 0
SMALL
GASTEIGER

@<TRIPOS>ATOM
      1 C         142.3020  136.7170  156.7756 C.ar    1  UNL1        0.1453
      2 C         142.7544  137.5554  157.9342 C.ar    1  UNL1        0.0372
      3 C         141.7824  138.4632  158.6279 C.ar    1  UNL1        0.0002
      4 C         140.3580  138.5326  158.1629 C.ar    1  UNL1       -0.0059
      5 C         139.9055  137.6942  157.0044 C.ar    1  UNL1        0.0002
      6 C         140.8775  136.7864  156.3107 C.ar    1  UNL1        0.0372
      7 O         143.2739  135.8092  156.0820 O.3     1  UNL1       -0.4535
      8 C         141.9287  131.7743  154.6122 C.ar    1  UNL1        0.1470
      9 C         142.3059  131.9605  156.0519 C.ar    1  UNL1        0.0403
     10 C         142.7543  133.3055  156.5419 C.ar    1  UNL1        0.0406
     11 C         142.8255  134.4642  155.5920 C.ar    1  UNL1        0.1455
     12 C         142.4483  134.2780  154.1522 C.ar    1  UNL1        0.0406
     13 C         141.9999  132.9330  153.6623 C.ar    1  UNL1        0.0403
     14 O         141.4803  130.4293  154.1222 O.3     1  UNL1       -0.4045
     15 F         139.2855  128.9672  155.5522 F       1  UNL1       -0.1328
     16 C         140.3829  129.6983  154.8372 C.3     1  UNL1        0.5753
     17 F         139.4590  130.8566  154.6034 F       1  UNL1       -0.1328
     18 F         141.3068  128.5400  155.0709 F       1  UNL1       -0.1328
     19 C         139.3861  139.4404  158.8566 C.3     1  UNL1        0.0992
     20 N         139.1674  139.3156  160.3354 N.3     1  UNL1       -0.2688
     21 C         139.3287  137.9845  161.0077 C.3     1  UNL1        0.0748
     22 C         139.1101  137.8598  162.4865 C.3     1  UNL1        0.0446
     23 C         138.7302  139.0662  163.2929 C.3     1  UNL1        0.0954
     24 C         138.8914  137.7351  163.9652 C.3     1  UNL1        0.0274
     25 C         138.6728  137.6104  165.4439 C.3     1  UNL1        0.0050
     26 C         138.2929  138.8168  166.2503 C.3     1  UNL1        0.0321
     27 C         138.1316  140.1479  165.5779 C.3     1  UNL1        0.1419
     28 O         138.3502  140.2726  164.0992 O.3     1  UNL1       -0.3584
     29 C         138.5689  140.3973  162.6205 C.3     1  UNL1        0.0446
     30 C         138.7875  140.5220  161.1418 C.3     1  UNL1        0.0748
@<TRIPOS>BOND
     1    15    16    1
     2    16    17    1
     3    16    18    1
     4    16    14    1
     5    14     8    1
     6     8     9   ar
     7     9    10   ar
     8    10    11   ar
     9    11     7    1
    10     7     1    1
    11     1     2   ar
    12     2     3   ar
    13     3     4   ar
    14     4    19    1
    15    19    20    1
    16    20    21    1
    17    21    22    1
    18    22    23    1
    19    23    24    1
    20    24    25    1
    21    25    26    1
    22    26    27    1
    23    27    28    1
    24    23    29    1
    25    29    30    1
    26     4     5   ar
    27     5     6   ar
    28    11    12   ar
    29    12    13   ar
    30    13     8   ar
    31     6     1   ar
    32    30    20    1
    33    28    23    1
@<TRIPOS>MOLECULE
*****
 30 33 0 0 0
SMALL
GASTEIGER

@<TRIPOS>ATOM
      1 C         138.8371  138.9210  164.8533 C.ar    1  UNL1        0.1453
      2 C         139.8502  137.8933  164.4442 C.ar    1  UNL1        0.0372
      3 C         140.1463  137.6690  162.9909 C.ar    1  UNL1        0.0002
      4 C         139.4294  138.4725  161.9467 C.ar    1  UNL1       -0.0059
      5 C         138.4162  139.5002  162.3558 C.ar    1  UNL1        0.0002
      6 C         138.1201  139.7245  163.8090 C.ar    1  UNL1        0.0372
      7 O         138.5410  139.1453  166.3065 O.3     1  UNL1       -0.4535
      8 C         141.0232  142.0476  168.6868 C.ar    1  UNL1        0.1470
      9 C         140.2914  140.9391  169.3836 C.ar    1  UNL1        0.0403
     10 C         139.4640  139.9717  168.5902 C.ar    1  UNL1        0.0406
     11 C         139.3684  140.1128  167.0999 C.ar    1  UNL1        0.1455
     12 C         140.1002  141.2213  166.4031 C.ar    1  UNL1        0.0406
     13 C         140.9276  142.1887  167.1965 C.ar    1  UNL1        0.0403
     14 O         141.8506  143.0150  169.4802 O.3     1  UNL1       -0.4045
     15 F         144.7141  142.3772  170.1076 F       1  UNL1       -0.1328
     16 C         143.2823  142.6961  169.7939 C.3     1  UNL1        0.5753
     17 F         143.3143  141.7199  168.6555 F       1  UNL1       -0.1328
     18 F         143.2504  143.6723  170.9322 F       1  UNL1       -0.1328
     19 C         139.7255  138.2482  160.4935 C.3     1  UNL1        0.0992
     20 N         140.8647  138.9726  159.8397 N.3     1  UNL1       -0.2688
     21 C         141.2555  140.3404  160.3154 C.3     1  UNL1        0.0748
     22 C         142.3948  141.0648  159.6616 C.3     1  UNL1        0.0446
     23 C         143.1432  140.4213  158.5320 C.3     1  UNL1        0.0954
     24 C         143.5340  141.7891  159.0077 C.3     1  UNL1        0.0274
     25 C         144.6732  142.5134  158.3539 C.3     1  UNL1        0.0050
     26 C         145.4216  141.8700  157.2244 C.3     1  UNL1        0.0321
     27 C         145.0308  140.5022  156.7487 C.3     1  UNL1        0.1419
     28 O         143.8916  139.7778  157.4025 O.3     1  UNL1       -0.3584
     29 C         142.7524  139.0534  158.0563 C.3     1  UNL1        0.0446
     30 C         141.6132  138.3291  158.7101 C.3     1  UNL1        0.0748
@<TRIPOS>BOND
     1    15    16    1
     2    16    17    1
     3    16    18    1
     4    16    14    1
     5    14     8    1
     6     8     9   ar
     7     9    10   ar
     8    10    11   ar
     9    11     7    1
    10     7     1    1
    11     1     2   ar
    12     2     3   ar
    13     3     4   ar
    14     4    19    1
    15    19    20    1
    16    20    21    1
    17    21    22    1
    18    22    23    1
    19    23    24    1
    20    24    25    1
    21    25    26    1
    22    26    27    1
    23    27    28    1
    24    23    29    1
    25    29    30    1
    26     4     5   ar
    27     5     6   ar
    28    11    12   ar
    29    12    13   ar
    30    13     8   ar
    31     6     1   ar
    32    30    20    1
    33    28    23    1
@<TRIPOS>MOLECULE
*****
 30 33 0 0 0
SMALL
GASTEIGER

@<TRIPOS>ATOM
      1 C         138.2655  140.8004  158.5121 C.ar    1  UNL1        0.1453
      2 C         139.5250  141.4225  159.0381 C.ar    1  UNL1        0.0372
      3 C         140.3577  142.2971  158.1484 C.ar    1  UNL1        0.0002
      4 C         139.9309  142.5497  156.7328 C.ar    1  UNL1       -0.0059
      5 C         138.6714  141.9277  156.2068 C.ar    1  UNL1        0.0002
      6 C         137.8387  141.0530  157.0964 C.ar    1  UNL1        0.0372
      7 O         137.4327  139.9258  159.4018 O.3     1  UNL1       -0.4535
      8 C         138.7922  139.0425  163.5996 C.ar    1  UNL1        0.1470
      9 C         139.0861  138.0702  162.4958 C.ar    1  UNL1        0.0403
     10 C         138.6329  138.3646  161.0965 C.ar    1  UNL1        0.0406
     11 C         137.8859  139.6313  160.8010 C.ar    1  UNL1        0.1455
     12 C         137.5920  140.6036  161.9048 C.ar    1  UNL1        0.0406
     13 C         138.0451  140.3091  163.3040 C.ar    1  UNL1        0.0403
     14 O         139.2453  138.7480  164.9988 O.3     1  UNL1       -0.4045
     15 F         137.2447  137.9489  167.0866 F       1  UNL1       -0.1328
     16 C         138.2450  138.3485  166.0427 C.3     1  UNL1        0.5753
     17 F         138.1172  139.7811  166.4685 F       1  UNL1       -0.1328
     18 F         138.3729  136.9159  165.6170 F       1  UNL1       -0.1328
     19 C         140.7637  143.4244  155.8431 C.3     1  UNL1        0.0992
     20 N         140.3882  144.8625  155.6410 N.3     1  UNL1       -0.2688
     21 C         140.7916  145.5734  154.3833 C.3     1  UNL1        0.0748
     22 C         140.4162  147.0116  154.1812 C.3     1  UNL1        0.0446
     23 C         139.6374  147.7388  155.2369 C.3     1  UNL1        0.0954
     24 C         140.0407  148.4497  153.9792 C.3     1  UNL1        0.0274
     25 C         139.6653  149.8877  153.7771 C.3     1  UNL1        0.0050
     26 C         138.8865  150.6150  154.8328 C.3     1  UNL1        0.0321
     27 C         138.4831  149.9042  156.0906 C.3     1  UNL1        0.1419
     28 O         138.8585  148.4661  156.2926 O.3     1  UNL1       -0.3584
     29 C         139.2340  147.0279  156.4947 C.3     1  UNL1        0.0446
     30 C         139.6094  145.5898  156.6967 C.3     1  UNL1        0.0748
@<TRIPOS>BOND
     1    15    16    1
     2    16    17    1
     3    16    18    1
     4    16    14    1
     5    14     8    1
     6     8     9   ar
     7     9    10   ar
     8    10    11   ar
     9    11     7    1
    10     7     1    1
    11     1     2   ar
    12     2     3   ar
    13     3     4   ar
    14     4    19    1
    15    19    20    1
    16    20    21    1
    17    21    22    1
    18    22    23    1
    19    23    24    1
    20    24    25    1
    21    25    26    1
    22    26    27    1
    23    27    28    1
    24    23    29    1
    25    29    30    1
    26     4     5   ar
    27     5     6   ar
    28    11    12   ar
    29    12    13   ar
    30    13     8   ar
    31     6     1   ar
    32    30    20    1
    33    28    23    1
