@<TRIPOS>MOLECULE
*****
 41 46 0 0 0
SMALL
GASTEIGER

@<TRIPOS>ATOM
      1 C         143.4955  139.6610  158.9363 C.3     1  UNL1        0.0182
      2 C         142.6608  139.2914  157.7459 C.3     1  UNL1        0.0135
      3 C         142.2074  140.3537  156.7889 C.3     1  UNL1        0.0652
      4 S         140.7446  140.6461  156.6311 S.3     1  UNL1       -0.0757
      5 C         138.7656  140.8994  159.9606 C.ar    1  UNL1        0.1669
      6 N         138.0490  139.7695  159.2826 N.ar    1  UNL1       -0.1282
      7 N         138.7030  139.5370  157.9529 N.ar    1  UNL1       -0.1221
      8 C         139.8240  140.5233  157.8090 C.ar    1  UNL1        0.1932
      9 N         139.8627  141.3653  159.0498 N.ar    1  UNL1       -0.2884
     10 C         140.8287  142.4779  159.3305 C.3     1  UNL1        0.1340
     11 C         138.4277  137.8911  166.1319 C.3     1  UNL1        0.0521
     12 C         138.4313  138.7844  164.9269 C.ar    1  UNL1        0.0593
     13 C         138.7548  138.2195  163.5755 C.ar    1  UNL1        0.0147
     14 C         138.7584  139.1128  162.3705 C.ar    1  UNL1        0.0028
     15 C         138.4385  140.5709  162.5169 C.ar    1  UNL1        0.0206
     16 C         138.4421  141.4643  161.3119 C.ar    1  UNL1        0.0374
     17 C         138.1222  142.9225  161.4583 C.ar    1  UNL1        0.0031
     18 C         137.7987  143.4873  162.8097 C.ar    1  UNL1        0.0016
     19 C         137.7951  142.5940  164.0147 C.ar    1  UNL1        0.0191
     20 C         138.1150  141.1358  163.8683 C.ar    1  UNL1        0.0810
     21 N         138.1114  140.2425  165.0733 N.ar    1  UNL1       -0.2497
     22 C         143.5072  138.7766  160.1477 C.3     1  UNL1        0.0721
     23 N         143.0246  139.3044  161.4663 N.3     1  UNL1       -0.2721
     24 C         142.9243  138.2969  162.5731 C.3     1  UNL1        0.0768
     25 C         142.4807  138.5060  163.9908 C.3     1  UNL1        0.0434
     26 C         142.0281  139.7741  164.6516 C.ar    1  UNL1       -0.0233
     27 C         141.6707  139.5450  166.0904 C.ar    1  UNL1        0.0178
     28 C         141.1924  140.6881  166.9356 C.ar    1  UNL1        0.1181
     29 N         140.7709  140.7659  168.3730 N.ar    1  UNL1       -0.2050
     30 C         140.3895  142.1863  168.6680 C.ar    1  UNL1        0.3031
     31 O         140.5752  142.9863  167.4129 O.2     1  UNL1       -0.4321
     32 C         141.0715  142.0605  166.3422 C.ar    1  UNL1        0.1603
     33 C         141.4289  142.2896  164.9035 C.ar    1  UNL1        0.0101
     34 C         141.3080  143.6619  164.3101 C.3     1  UNL1        0.0339
     35 C         141.9072  141.1465  164.0583 C.ar    1  UNL1       -0.0256
     36 C         142.2090  141.5895  162.6573 C.3     1  UNL1        0.0431
     37 C         142.7064  140.7696  161.5039 C.3     1  UNL1        0.0768
     38 C         139.9070  142.7140  169.9866 C.3     1  UNL1        0.4696
     39 F         139.4245  143.2415  171.3052 F       1  UNL1       -0.1619
     40 F         139.2910  141.3814  170.2945 F       1  UNL1       -0.1619
     41 F         140.5229  144.0466  169.6789 F       1  UNL1       -0.1619
@<TRIPOS>BOND
     1    11    12    1
     2    12    13   ar
     3    13    14   ar
     4    14    15   ar
     5    15    16   ar
     6    16     5    1
     7     5     6   ar
     8     6     7   ar
     9     7     8   ar
    10     8     4    1
    11     4     3    1
    12     3     2    1
    13     2     1    1
    14     1    22    1
    15    22    23    1
    16    23    24    1
    17    24    25    1
    18    25    26    1
    19    26    27   ar
    20    27    28   ar
    21    28    29   ar
    22    29    30   ar
    23    30    38    1
    24    38    39    1
    25    38    40    1
    26    38    41    1
    27    30    31   ar
    28    31    32   ar
    29    32    33   ar
    30    33    34    1
    31    33    35   ar
    32    35    36    1
    33    36    37    1
    34     8     9   ar
    35     9    10    1
    36    16    17   ar
    37    17    18   ar
    38    18    19   ar
    39    19    20   ar
    40    20    21   ar
    41    21    12   ar
    42    20    15   ar
    43     9     5   ar
    44    37    23    1
    45    35    26   ar
    46    32    28   ar
@<TRIPOS>MOLECULE
*****
 41 46 0 0 0
SMALL
GASTEIGER

@<TRIPOS>ATOM
      1 C         138.1886  141.8864  158.6254 C.3     1  UNL1        0.0182
      2 C         139.4653  142.3086  157.9606 C.3     1  UNL1        0.0135
      3 C         139.6270  143.7182  157.4741 C.3     1  UNL1        0.0652
      4 S         140.7649  144.5581  157.9738 S.3     1  UNL1       -0.0757
      5 C         142.8782  143.4527  161.0362 C.ar    1  UNL1        0.1669
      6 N         143.6086  142.7697  159.9182 N.ar    1  UNL1       -0.1282
      7 N         142.9060  143.1006  158.6350 N.ar    1  UNL1       -0.1221
      8 C         141.7412  143.9882  158.9598 C.ar    1  UNL1        0.1932
      9 N         141.7240  144.2058  160.4439 N.ar    1  UNL1       -0.2884
     10 C         140.7277  145.0315  161.2024 C.3     1  UNL1        0.1340
     11 C         142.6111  138.2574  165.5292 C.3     1  UNL1        0.0521
     12 C         142.7679  139.5413  164.7696 C.ar    1  UNL1        0.0593
     13 C         142.4076  139.6009  163.3147 C.ar    1  UNL1        0.0147
     14 C         142.5645  140.8848  162.5552 C.ar    1  UNL1        0.0028
     15 C         143.0817  142.1092  163.2505 C.ar    1  UNL1        0.0206
     16 C         143.2386  143.3932  162.4910 C.ar    1  UNL1        0.0374
     17 C         143.7558  144.6176  163.1863 C.ar    1  UNL1        0.0031
     18 C         144.1161  144.5579  164.6412 C.ar    1  UNL1        0.0016
     19 C         143.9592  143.2740  165.4007 C.ar    1  UNL1        0.0191
     20 C         143.4420  142.0496  164.7054 C.ar    1  UNL1        0.0810
     21 N         143.2852  140.7657  165.4649 N.ar    1  UNL1       -0.2497
     22 C         138.1372  140.6068  159.4065 C.3     1  UNL1        0.0721
     23 N         138.4286  140.6141  160.8779 N.3     1  UNL1       -0.2721
     24 C         138.1824  139.3205  161.5964 C.3     1  UNL1        0.0768
     25 C         138.3744  139.0074  163.0508 C.3     1  UNL1        0.0434
     26 C         138.8599  139.9103  164.1457 C.ar    1  UNL1       -0.0233
     27 C         138.9055  139.1969  165.4645 C.ar    1  UNL1        0.0178
     28 C         139.3645  139.9227  166.6943 C.ar    1  UNL1        0.1181
     29 N         139.5137  139.4849  168.1212 N.ar    1  UNL1       -0.2050
     30 C         140.0195  140.6534  168.9141 C.ar    1  UNL1        0.3031
     31 O         140.1827  141.8134  167.9773 O.2     1  UNL1       -0.4321
     32 C         139.7779  141.3619  166.6055 C.ar    1  UNL1        0.1603
     33 C         139.7324  142.0752  165.2867 C.ar    1  UNL1        0.0101
     34 C         140.1459  143.5143  165.1978 C.3     1  UNL1        0.0339
     35 C         139.2734  141.3494  164.0568 C.ar    1  UNL1       -0.0256
     36 C         139.3035  142.2411  162.8510 C.3     1  UNL1        0.0431
     37 C         138.9274  141.9138  161.4363 C.3     1  UNL1        0.0768
     38 C         140.3107  140.6606  170.3856 C.3     1  UNL1        0.4696
     39 F         140.6020  140.6677  171.8570 F       1  UNL1       -0.1619
     40 F         141.1066  139.3982  170.2342 F       1  UNL1       -0.1619
     41 F         139.5149  141.9229  170.5371 F       1  UNL1       -0.1619
@<TRIPOS>BOND
     1    11    12    1
     2    12    13   ar
     3    13    14   ar
     4    14    15   ar
     5    15    16   ar
     6    16     5    1
     7     5     6   ar
     8     6     7   ar
     9     7     8   ar
    10     8     4    1
    11     4     3    1
    12     3     2    1
    13     2     1    1
    14     1    22    1
    15    22    23    1
    16    23    24    1
    17    24    25    1
    18    25    26    1
    19    26    27   ar
    20    27    28   ar
    21    28    29   ar
    22    29    30   ar
    23    30    38    1
    24    38    39    1
    25    38    40    1
    26    38    41    1
    27    30    31   ar
    28    31    32   ar
    29    32    33   ar
    30    33    34    1
    31    33    35   ar
    32    35    36    1
    33    36    37    1
    34     8     9   ar
    35     9    10    1
    36    16    17   ar
    37    17    18   ar
    38    18    19   ar
    39    19    20   ar
    40    20    21   ar
    41    21    12   ar
    42    20    15   ar
    43     9     5   ar
    44    37    23    1
    45    35    26   ar
    46    32    28   ar
@<TRIPOS>MOLECULE
*****
 41 46 0 0 0
SMALL
GASTEIGER

@<TRIPOS>ATOM
      1 C         140.7868  138.3938  158.5192 C.3     1  UNL1        0.0182
      2 C         140.4624  139.7033  157.8632 C.3     1  UNL1        0.0135
      3 C         139.1362  139.8965  157.1898 C.3     1  UNL1        0.0652
      4 S         138.1399  140.8628  157.7588 S.3     1  UNL1       -0.0757
      5 C         138.9568  142.9619  160.9199 C.ar    1  UNL1        0.1669
      6 N         139.5073  143.8420  159.8373 N.ar    1  UNL1       -0.1282
      7 N         139.2684  143.1629  158.5213 N.ar    1  UNL1       -0.1221
      8 C         138.5701  141.8629  158.7907 C.ar    1  UNL1        0.1932
      9 N         138.3775  141.7387  160.2731 N.ar    1  UNL1       -0.2884
     10 C         137.7210  140.5925  160.9839 C.3     1  UNL1        0.1340
     11 C         144.0995  142.7047  165.4736 C.3     1  UNL1        0.0521
     12 C         142.8200  142.8419  164.7029 C.ar    1  UNL1        0.0593
     13 C         142.7955  142.5502  163.2317 C.ar    1  UNL1        0.0147
     14 C         141.5160  142.6874  162.4611 C.ar    1  UNL1        0.0028
     15 C         140.2609  143.1163  163.1616 C.ar    1  UNL1        0.0206
     16 C         138.9812  143.2535  162.3910 C.ar    1  UNL1        0.0374
     17 C         137.7261  143.6824  163.0916 C.ar    1  UNL1        0.0031
     18 C         137.7506  143.9740  164.5627 C.ar    1  UNL1        0.0016
     19 C         139.0302  143.8368  165.3334 C.ar    1  UNL1        0.0191
     20 C         140.2853  143.4080  164.6328 C.ar    1  UNL1        0.0810
     21 N         141.5649  143.2708  165.4035 N.ar    1  UNL1       -0.2497
     22 C         142.0317  138.2565  159.3445 C.3     1  UNL1        0.0721
     23 N         141.9900  138.5373  160.8174 N.3     1  UNL1       -0.2721
     24 C         143.2951  138.3981  161.5437 C.3     1  UNL1        0.0768
     25 C         143.5812  138.6074  163.0013 C.3     1  UNL1        0.0434
     26 C         142.6330  139.0075  164.0924 C.ar    1  UNL1       -0.0233
     27 C         143.3311  139.1058  165.4164 C.ar    1  UNL1        0.0178
     28 C         142.5607  139.4939  166.6436 C.ar    1  UNL1        0.1181
     29 N         142.9748  139.6714  168.0743 N.ar    1  UNL1       -0.2050
     30 C         141.7622  140.0709  168.8617 C.ar    1  UNL1        0.3031
     31 O         140.5987  140.1403  167.9176 O.2     1  UNL1       -0.4321
     32 C         141.0922  139.7837  166.5468 C.ar    1  UNL1        0.1603
     33 C         140.3940  139.6854  165.2228 C.ar    1  UNL1        0.0101
     34 C         138.9255  139.9752  165.1259 C.3     1  UNL1        0.0339
     35 C         141.1644  139.2973  163.9956 C.ar    1  UNL1       -0.0256
     36 C         140.2814  139.2585  162.7837 C.3     1  UNL1        0.0431
     37 C         140.6489  138.9202  161.3693 C.3     1  UNL1        0.0768
     38 C         141.7206  140.3517  170.3346 C.3     1  UNL1        0.4696
     39 F         141.6790  140.6325  171.8074 F       1  UNL1       -0.1619
     40 F         143.1863  140.0485  170.4338 F       1  UNL1       -0.1619
     41 F         140.2550  140.6549  170.2354 F       1  UNL1       -0.1619
@<TRIPOS>BOND
     1    11    12    1
     2    12    13   ar
     3    13    14   ar
     4    14    15   ar
     5    15    16   ar
     6    16     5    1
     7     5     6   ar
     8     6     7   ar
     9     7     8   ar
    10     8     4    1
    11     4     3    1
    12     3     2    1
    13     2     1    1
    14     1    22    1
    15    22    23    1
    16    23    24    1
    17    24    25    1
    18    25    26    1
    19    26    27   ar
    20    27    28   ar
    21    28    29   ar
    22    29    30   ar
    23    30    38    1
    24    38    39    1
    25    38    40    1
    26    38    41    1
    27    30    31   ar
    28    31    32   ar
    29    32    33   ar
    30    33    34    1
    31    33    35   ar
    32    35    36    1
    33    36    37    1
    34     8     9   ar
    35     9    10    1
    36    16    17   ar
    37    17    18   ar
    38    18    19   ar
    39    19    20   ar
    40    20    21   ar
    41    21    12   ar
    42    20    15   ar
    43     9     5   ar
    44    37    23    1
    45    35    26   ar
    46    32    28   ar
@<TRIPOS>MOLECULE
*****
 41 46 0 0 0
SMALL
GASTEIGER

@<TRIPOS>ATOM
      1 C         141.2757  145.3893  159.2026 C.3     1  UNL1        0.0182
      2 C         141.6233  144.2985  158.2333 C.3     1  UNL1        0.0135
      3 C         143.0552  143.8957  158.0394 C.3     1  UNL1        0.0652
      4 S         143.4261  142.4430  157.9950 S.3     1  UNL1       -0.0757
      5 C         142.8136  140.3681  161.2177 C.ar    1  UNL1        0.1669
      6 N         141.7409  139.8298  160.3181 N.ar    1  UNL1       -0.1282
      7 N         141.8397  140.5414  159.0014 N.ar    1  UNL1       -0.1221
      8 C         142.9736  141.5197  159.0872 C.ar    1  UNL1        0.1932
      9 N         143.5755  141.4126  160.4570 N.ar    1  UNL1       -0.2884
     10 C         144.7356  142.2099  160.9750 C.3     1  UNL1        0.1340
     11 C         138.5160  139.2885  166.4727 C.3     1  UNL1        0.0521
     12 C         139.6565  139.4508  165.5120 C.ar    1  UNL1        0.0593
     13 C         139.3920  139.8813  164.0996 C.ar    1  UNL1        0.0147
     14 C         140.5325  140.0436  163.1389 C.ar    1  UNL1        0.0028
     15 C         141.9376  139.7754  163.5907 C.ar    1  UNL1        0.0206
     16 C         143.0782  139.9377  162.6300 C.ar    1  UNL1        0.0374
     17 C         144.4832  139.6695  163.0817 C.ar    1  UNL1        0.0031
     18 C         144.7476  139.2391  164.4941 C.ar    1  UNL1        0.0016
     19 C         143.6071  139.0768  165.4548 C.ar    1  UNL1        0.0191
     20 C         142.2021  139.3450  165.0030 C.ar    1  UNL1        0.0810
     21 N         141.0616  139.1827  165.9637 N.ar    1  UNL1       -0.2497
     22 C         140.1403  145.2035  160.1651 C.3     1  UNL1        0.0721
     23 N         140.4028  144.6622  161.5392 N.3     1  UNL1       -0.2721
     24 C         139.1985  144.5139  162.4212 C.3     1  UNL1        0.0768
     25 C         139.1289  144.0075  163.8314 C.3     1  UNL1        0.0434
     26 C         140.2461  143.5245  164.7079 C.ar    1  UNL1       -0.0233
     27 C         139.7419  143.1037  166.0565 C.ar    1  UNL1        0.0178
     28 C         140.7006  142.5869  167.0879 C.ar    1  UNL1        0.1181
     29 N         140.4981  142.1017  168.4928 N.ar    1  UNL1       -0.2050
     30 C         141.8359  141.7059  169.0438 C.ar    1  UNL1        0.3031
     31 O         142.8652  141.9464  167.9796 O.2     1  UNL1       -0.4321
     32 C         142.1636  142.4908  166.7708 C.ar    1  UNL1        0.1603
     33 C         142.6678  142.9116  165.4221 C.ar    1  UNL1        0.0101
     34 C         144.1306  142.8156  165.1049 C.3     1  UNL1        0.0339
     35 C         141.7091  143.4284  164.3907 C.ar    1  UNL1       -0.0256
     36 C         142.4160  143.7917  163.1187 C.3     1  UNL1        0.0431
     37 C         141.8346  144.3408  161.8496 C.3     1  UNL1        0.0768
     38 C         142.0983  141.1646  170.4180 C.3     1  UNL1        0.4696
     39 F         142.3606  140.6233  171.7920 F       1  UNL1       -0.1619
     40 F         140.7273  141.5943  170.8490 F       1  UNL1       -0.1619
     41 F         143.4692  140.7349  169.9870 F       1  UNL1       -0.1619
@<TRIPOS>BOND
     1    11    12    1
     2    12    13   ar
     3    13    14   ar
     4    14    15   ar
     5    15    16   ar
     6    16     5    1
     7     5     6   ar
     8     6     7   ar
     9     7     8   ar
    10     8     4    1
    11     4     3    1
    12     3     2    1
    13     2     1    1
    14     1    22    1
    15    22    23    1
    16    23    24    1
    17    24    25    1
    18    25    26    1
    19    26    27   ar
    20    27    28   ar
    21    28    29   ar
    22    29    30   ar
    23    30    38    1
    24    38    39    1
    25    38    40    1
    26    38    41    1
    27    30    31   ar
    28    31    32   ar
    29    32    33   ar
    30    33    34    1
    31    33    35   ar
    32    35    36    1
    33    36    37    1
    34     8     9   ar
    35     9    10    1
    36    16    17   ar
    37    17    18   ar
    38    18    19   ar
    39    19    20   ar
    40    20    21   ar
    41    21    12   ar
    42    20    15   ar
    43     9     5   ar
    44    37    23    1
    45    35    26   ar
    46    32    28   ar
@<TRIPOS>MOLECULE
*****
 41 46 0 0 0
SMALL
GASTEIGER

@<TRIPOS>ATOM
      1 C         143.0764  141.3025  158.1600 C.3     1  UNL1        0.0182
      2 C         141.7896  141.6421  157.4679 C.3     1  UNL1        0.0135
      3 C         141.6126  142.9892  156.8325 C.3     1  UNL1        0.0652
      4 S         140.7939  144.0411  157.5206 S.3     1  UNL1       -0.0757
      5 C         139.2162  143.4229  161.0126 C.ar    1  UNL1        0.1669
      6 N         138.1680  142.8378  160.1133 N.ar    1  UNL1       -0.1282
      7 N         138.6314  142.9981  158.6957 N.ar    1  UNL1       -0.1221
      8 C         139.9660  143.6824  158.7189 C.ar    1  UNL1        0.1932
      9 N         140.3275  143.9449  160.1509 N.ar    1  UNL1       -0.2884
     10 C         141.5802  144.6123  160.6359 C.3     1  UNL1        0.1340
     11 C         139.3403  138.3995  165.7029 C.3     1  UNL1        0.0521
     12 C         139.2959  139.6688  164.9049 C.ar    1  UNL1        0.0593
     13 C         139.3494  139.6150  163.4068 C.ar    1  UNL1        0.0147
     14 C         139.3050  140.8843  162.6087 C.ar    1  UNL1        0.0028
     15 C         139.2070  142.2073  163.3087 C.ar    1  UNL1        0.0206
     16 C         139.1626  143.4767  162.5107 C.ar    1  UNL1        0.0374
     17 C         139.0646  144.7997  163.2107 C.ar    1  UNL1        0.0031
     18 C         139.0111  144.8534  164.7088 C.ar    1  UNL1        0.0016
     19 C         139.0555  143.5841  165.5069 C.ar    1  UNL1        0.0191
     20 C         139.1535  142.2611  164.8068 C.ar    1  UNL1        0.0810
     21 N         139.1979  140.9918  165.6049 N.ar    1  UNL1       -0.2497
     22 C         143.1910  140.0320  158.9491 C.3     1  UNL1        0.0721
     23 N         143.1188  140.0703  160.4468 N.3     1  UNL1       -0.2721
     24 C         143.2026  138.7408  161.1366 C.3     1  UNL1        0.0768
     25 C         143.1606  138.4456  162.6067 C.3     1  UNL1        0.0434
     26 C         143.0245  139.4069  163.7500 C.ar    1  UNL1       -0.0233
     27 C         143.0258  138.6930  165.0693 C.ar    1  UNL1        0.0178
     28 C         142.8994  139.4730  166.3443 C.ar    1  UNL1        0.1181
     29 N         142.8702  139.0477  167.7824 N.ar    1  UNL1       -0.2050
     30 C         142.7243  140.2787  168.6270 C.ar    1  UNL1        0.3031
     31 O         142.6634  141.4648  167.7108 O.2     1  UNL1       -0.4321
     32 C         142.7716  140.9669  166.3001 C.ar    1  UNL1        0.1603
     33 C         142.7702  141.6808  164.9808 C.ar    1  UNL1        0.0101
     34 C         142.6424  143.1746  164.9366 C.3     1  UNL1        0.0339
     35 C         142.8967  140.9008  163.7058 C.ar    1  UNL1       -0.0256
     36 C         142.8734  141.8024  162.5072 C.3     1  UNL1        0.0431
     37 C         142.9723  141.4326  161.0569 C.3     1  UNL1        0.0768
     38 C         142.6521  140.3169  170.1248 C.3     1  UNL1        0.4696
     39 F         142.5798  140.3549  171.6225 F       1  UNL1       -0.1619
     40 F         141.4265  139.4529  170.0877 F       1  UNL1       -0.1619
     41 F         143.8777  141.1808  170.1619 F       1  UNL1       -0.1619
@<TRIPOS>BOND
     1    11    12    1
     2    12    13   ar
     3    13    14   ar
     4    14    15   ar
     5    15    16   ar
     6    16     5    1
     7     5     6   ar
     8     6     7   ar
     9     7     8   ar
    10     8     4    1
    11     4     3    1
    12     3     2    1
    13     2     1    1
    14     1    22    1
    15    22    23    1
    16    23    24    1
    17    24    25    1
    18    25    26    1
    19    26    27   ar
    20    27    28   ar
    21    28    29   ar
    22    29    30   ar
    23    30    38    1
    24    38    39    1
    25    38    40    1
    26    38    41    1
    27    30    31   ar
    28    31    32   ar
    29    32    33   ar
    30    33    34    1
    31    33    35   ar
    32    35    36    1
    33    36    37    1
    34     8     9   ar
    35     9    10    1
    36    16    17   ar
    37    17    18   ar
    38    18    19   ar
    39    19    20   ar
    40    20    21   ar
    41    21    12   ar
    42    20    15   ar
    43     9     5   ar
    44    37    23    1
    45    35    26   ar
    46    32    28   ar
@<TRIPOS>MOLECULE
*****
 41 46 0 0 0
SMALL
GASTEIGER

@<TRIPOS>ATOM
      1 C         140.2154  139.3691  158.3705 C.3     1  UNL1        0.0182
      2 C         141.2069  138.5558  157.5922 C.3     1  UNL1        0.0135
      3 C         142.1661  139.2342  156.6597 C.3     1  UNL1        0.0652
      4 S         143.4849  139.7322  157.1723 S.3     1  UNL1       -0.0757
      5 C         143.7353  141.7938  160.4515 C.ar    1  UNL1        0.1669
      6 N         143.4403  142.8730  159.4524 N.ar    1  UNL1       -0.1282
      7 N         143.3105  142.2322  158.1024 N.ar    1  UNL1       -0.1221
      8 C         143.5254  140.7568  158.2671 C.ar    1  UNL1        0.1932
      9 N         143.7879  140.4859  159.7190 N.ar    1  UNL1       -0.2884
     10 C         144.0559  139.1429  160.3308 C.3     1  UNL1        0.1340
     11 C         139.3005  143.4471  165.4364 C.3     1  UNL1        0.0521
     12 C         140.4607  143.0824  164.5584 C.ar    1  UNL1        0.0593
     13 C         140.2546  142.8880  163.0854 C.ar    1  UNL1        0.0147
     14 C         141.4148  142.5232  162.2074 C.ar    1  UNL1        0.0028
     15 C         142.7812  142.3530  162.8024 C.ar    1  UNL1        0.0206
     16 C         143.9415  141.9883  161.9244 C.ar    1  UNL1        0.0374
     17 C         145.3079  141.8180  162.5194 C.ar    1  UNL1        0.0031
     18 C         145.5139  142.0125  163.9924 C.ar    1  UNL1        0.0016
     19 C         144.3537  142.3772  164.8704 C.ar    1  UNL1        0.0191
     20 C         142.9873  142.5474  164.2754 C.ar    1  UNL1        0.0810
     21 N         141.8271  142.9122  165.1534 N.ar    1  UNL1       -0.2497
     22 C         139.2844  138.6951  159.3343 C.3     1  UNL1        0.0721
     23 N         139.4506  138.9064  160.8100 N.3     1  UNL1       -0.2721
     24 C         138.1994  139.2486  161.5634 C.3     1  UNL1        0.0768
     25 C         138.0347  139.5164  163.0302 C.3     1  UNL1        0.0434
     26 C         139.0802  139.5083  164.1055 C.ar    1  UNL1       -0.0233
     27 C         138.4898  139.8303  165.4464 C.ar    1  UNL1        0.0178
     28 C         139.3681  139.8743  166.6616 C.ar    1  UNL1        0.1181
     29 N         139.0723  140.1611  168.1038 N.ar    1  UNL1       -0.2050
     30 C         140.3582  140.0605  168.8697 C.ar    1  UNL1        0.3031
     31 O         141.4486  139.7114  167.9007 O.2     1  UNL1       -0.4321
     32 C         140.8368  139.5964  166.5360 C.ar    1  UNL1        0.1603
     33 C         141.4272  139.2744  165.1952 C.ar    1  UNL1        0.0101
     34 C         142.8958  138.9964  165.0696 C.3     1  UNL1        0.0339
     35 C         140.5489  139.2304  163.9800 C.ar    1  UNL1       -0.0256
     36 C         141.3347  138.8919  162.7479 C.3     1  UNL1        0.0431
     37 C         140.8458  138.7477  161.3371 C.3     1  UNL1        0.0768
     38 C         140.5243  140.2718  170.3454 C.3     1  UNL1        0.4696
     39 F         140.6904  140.4831  171.8211 F       1  UNL1       -0.1619
     40 F         139.4179  141.2844  170.3249 F       1  UNL1       -0.1619
     41 F         141.6307  139.2592  170.3659 F       1  UNL1       -0.1619
@<TRIPOS>BOND
     1    11    12    1
     2    12    13   ar
     3    13    14   ar
     4    14    15   ar
     5    15    16   ar
     6    16     5    1
     7     5     6   ar
     8     6     7   ar
     9     7     8   ar
    10     8     4    1
    11     4     3    1
    12     3     2    1
    13     2     1    1
    14     1    22    1
    15    22    23    1
    16    23    24    1
    17    24    25    1
    18    25    26    1
    19    26    27   ar
    20    27    28   ar
    21    28    29   ar
    22    29    30   ar
    23    30    38    1
    24    38    39    1
    25    38    40    1
    26    38    41    1
    27    30    31   ar
    28    31    32   ar
    29    32    33   ar
    30    33    34    1
    31    33    35   ar
    32    35    36    1
    33    36    37    1
    34     8     9   ar
    35     9    10    1
    36    16    17   ar
    37    17    18   ar
    38    18    19   ar
    39    19    20   ar
    40    20    21   ar
    41    21    12   ar
    42    20    15   ar
    43     9     5   ar
    44    37    23    1
    45    35    26   ar
    46    32    28   ar
@<TRIPOS>MOLECULE
*****
 41 46 0 0 0
SMALL
GASTEIGER

@<TRIPOS>ATOM
      1 C         140.8178  145.5053  159.1163 C.3     1  UNL1        0.0182
      2 C         140.0118  145.3592  157.8596 C.3     1  UNL1        0.0135
      3 C         140.0114  144.0565  157.1161 C.3     1  UNL1        0.0652
      4 S         139.1361  142.9295  157.5785 S.3     1  UNL1       -0.0757
      5 C         139.9326  141.4216  161.0653 C.ar    1  UNL1        0.1669
      6 N         138.6316  142.1157  161.3400 N.ar    1  UNL1       -0.1282
      7 N         138.1748  142.7650  160.0673 N.ar    1  UNL1       -0.1221
      8 C         139.1936  142.4723  159.0060 C.ar    1  UNL1        0.1932
      9 N         140.2800  141.6419  159.6227 N.ar    1  UNL1       -0.2884
     10 C         141.4995  141.1231  158.9203 C.3     1  UNL1        0.1340
     11 C         138.3383  139.0783  167.3276 C.3     1  UNL1        0.0521
     12 C         138.9397  139.4696  166.0103 C.ar    1  UNL1        0.0593
     13 C         138.1284  140.2475  165.0170 C.ar    1  UNL1        0.0147
     14 C         138.7297  140.6389  163.6997 C.ar    1  UNL1        0.0028
     15 C         140.1424  140.2524  163.3758 C.ar    1  UNL1        0.0206
     16 C         140.7439  140.6437  162.0585 C.ar    1  UNL1        0.0374
     17 C         142.1566  140.2571  161.7346 C.ar    1  UNL1        0.0031
     18 C         142.9678  139.4792  162.7280 C.ar    1  UNL1        0.0016
     19 C         142.3664  139.0879  164.0452 C.ar    1  UNL1        0.0191
     20 C         140.9537  139.4744  164.3691 C.ar    1  UNL1        0.0810
     21 N         140.3523  139.0831  165.6864 N.ar    1  UNL1       -0.2497
     22 C         140.1402  145.8704  160.4037 C.3     1  UNL1        0.0721
     23 N         140.4892  145.1423  161.6678 N.3     1  UNL1       -0.2721
     24 C         139.4026  145.0723  162.6997 C.3     1  UNL1        0.0768
     25 C         139.4372  144.4231  164.0516 C.3     1  UNL1        0.0434
     26 C         140.5666  143.6837  164.7053 C.ar    1  UNL1       -0.0233
     27 C         140.1818  143.1896  166.0684 C.ar    1  UNL1        0.0178
     28 C         141.1710  142.4225  166.8950 C.ar    1  UNL1        0.1181
     29 N         141.0784  141.8144  168.2630 N.ar    1  UNL1       -0.2050
     30 C         142.3950  141.1656  168.5720 C.ar    1  UNL1        0.3031
     31 O         143.3014  141.3728  167.3950 O.2     1  UNL1       -0.4321
     32 C         142.5450  142.1496  166.3585 C.ar    1  UNL1        0.1603
     33 C         142.9297  142.6438  164.9955 C.ar    1  UNL1        0.0101
     34 C         144.3036  142.3709  164.4590 C.3     1  UNL1        0.0339
     35 C         141.9406  143.4108  164.1689 C.ar    1  UNL1       -0.0256
     36 C         142.5244  143.8099  162.8461 C.3     1  UNL1        0.0431
     37 C         141.8784  144.5805  161.7330 C.3     1  UNL1        0.0768
     38 C         142.7440  140.4375  169.8362 C.3     1  UNL1        0.4696
     39 F         143.0929  139.7095  171.1003 F       1  UNL1       -0.1619
     40 F         143.8438  141.4228  170.1001 F       1  UNL1       -0.1619
     41 F         141.6442  139.4522  169.5723 F       1  UNL1       -0.1619
@<TRIPOS>BOND
     1    11    12    1
     2    12    13   ar
     3    13    14   ar
     4    14    15   ar
     5    15    16   ar
     6    16     5    1
     7     5     6   ar
     8     6     7   ar
     9     7     8   ar
    10     8     4    1
    11     4     3    1
    12     3     2    1
    13     2     1    1
    14     1    22    1
    15    22    23    1
    16    23    24    1
    17    24    25    1
    18    25    26    1
    19    26    27   ar
    20    27    28   ar
    21    28    29   ar
    22    29    30   ar
    23    30    38    1
    24    38    39    1
    25    38    40    1
    26    38    41    1
    27    30    31   ar
    28    31    32   ar
    29    32    33   ar
    30    33    34    1
    31    33    35   ar
    32    35    36    1
    33    36    37    1
    34     8     9   ar
    35     9    10    1
    36    16    17   ar
    37    17    18   ar
    38    18    19   ar
    39    19    20   ar
    40    20    21   ar
    41    21    12   ar
    42    20    15   ar
    43     9     5   ar
    44    37    23    1
    45    35    26   ar
    46    32    28   ar
@<TRIPOS>MOLECULE
*****
 41 46 0 0 0
SMALL
GASTEIGER

@<TRIPOS>ATOM
      1 C         141.4546  145.3335  159.0065 C.3     1  UNL1        0.0182
      2 C         141.0726  144.6810  157.7109 C.3     1  UNL1        0.0135
      3 C         139.8572  143.8046  157.6424 C.3     1  UNL1        0.0652
      4 S         139.9906  142.3218  157.8253 S.3     1  UNL1       -0.0757
      5 C         140.4695  140.9465  161.4232 C.ar    1  UNL1        0.1669
      6 N         141.8732  140.8805  160.8985 N.ar    1  UNL1       -0.1282
      7 N         141.8647  141.3877  159.4869 N.ar    1  UNL1       -0.1221
      8 C         140.4557  141.7671  159.1391 C.ar    1  UNL1        0.1932
      9 N         139.5934  141.4944  160.3359 N.ar    1  UNL1       -0.2884
     10 C         138.1148  141.7286  160.4290 C.3     1  UNL1        0.1340
     11 C         143.9213  138.0317  166.6039 C.3     1  UNL1        0.0521
     12 C         142.9462  138.6579  165.6515 C.ar    1  UNL1        0.0593
     13 C         143.3950  139.0679  164.2802 C.ar    1  UNL1        0.0147
     14 C         142.4199  139.6941  163.3278 C.ar    1  UNL1        0.0028
     15 C         140.9959  139.9103  163.7468 C.ar    1  UNL1        0.0206
     16 C         140.0207  140.5365  162.7945 C.ar    1  UNL1        0.0374
     17 C         138.5967  140.7527  163.2134 C.ar    1  UNL1        0.0031
     18 C         138.1479  140.3427  164.5848 C.ar    1  UNL1        0.0016
     19 C         139.1231  139.7165  165.5371 C.ar    1  UNL1        0.0191
     20 C         140.5471  139.5003  165.1181 C.ar    1  UNL1        0.0810
     21 N         141.5222  138.8741  166.0705 N.ar    1  UNL1       -0.2497
     22 C         140.4331  145.5001  160.0921 C.3     1  UNL1        0.0721
     23 N         140.6721  144.8989  161.4455 N.3     1  UNL1       -0.2721
     24 C         139.4808  144.8509  162.3558 C.3     1  UNL1        0.0768
     25 C         139.3940  144.3173  163.7551 C.3     1  UNL1        0.0434
     26 C         140.4768  143.7002  164.5895 C.ar    1  UNL1       -0.0233
     27 C         139.9651  143.2976  165.9409 C.ar    1  UNL1        0.0178
     28 C         140.8906  142.6589  166.9336 C.ar    1  UNL1        0.1181
     29 N         140.6738  142.1602  168.3315 N.ar    1  UNL1       -0.2050
     30 C         141.9770  141.6158  168.8368 C.ar    1  UNL1        0.3031
     31 O         142.9992  141.7780  167.7512 O.2     1  UNL1       -0.4321
     32 C         142.3279  142.4227  166.5750 C.ar    1  UNL1        0.1603
     33 C         142.8396  142.8253  165.2236 C.ar    1  UNL1        0.0101
     34 C         144.2767  142.5891  164.8650 C.3     1  UNL1        0.0339
     35 C         141.9141  143.4640  164.2309 C.ar    1  UNL1       -0.0256
     36 C         142.6234  143.7867  162.9492 C.3     1  UNL1        0.0431
     37 C         142.0706  144.4253  161.7096 C.3     1  UNL1        0.0768
     38 C         142.2158  141.0146  170.1902 C.3     1  UNL1        0.4696
     39 F         142.4546  140.4135  171.5435 F       1  UNL1       -0.1619
     40 F         141.3965  142.1029  170.8182 F       1  UNL1       -0.1619
     41 F         143.0351  139.9263  169.5623 F       1  UNL1       -0.1619
@<TRIPOS>BOND
     1    11    12    1
     2    12    13   ar
     3    13    14   ar
     4    14    15   ar
     5    15    16   ar
     6    16     5    1
     7     5     6   ar
     8     6     7   ar
     9     7     8   ar
    10     8     4    1
    11     4     3    1
    12     3     2    1
    13     2     1    1
    14     1    22    1
    15    22    23    1
    16    23    24    1
    17    24    25    1
    18    25    26    1
    19    26    27   ar
    20    27    28   ar
    21    28    29   ar
    22    29    30   ar
    23    30    38    1
    24    38    39    1
    25    38    40    1
    26    38    41    1
    27    30    31   ar
    28    31    32   ar
    29    32    33   ar
    30    33    34    1
    31    33    35   ar
    32    35    36    1
    33    36    37    1
    34     8     9   ar
    35     9    10    1
    36    16    17   ar
    37    17    18   ar
    38    18    19   ar
    39    19    20   ar
    40    20    21   ar
    41    21    12   ar
    42    20    15   ar
    43     9     5   ar
    44    37    23    1
    45    35    26   ar
    46    32    28   ar
@<TRIPOS>MOLECULE
*****
 41 46 0 0 0
SMALL
GASTEIGER

@<TRIPOS>ATOM
      1 C         138.4716  142.2331  158.6082 C.3     1  UNL1        0.0182
      2 C         139.2223  141.4746  157.5539 C.3     1  UNL1        0.0135
      3 C         138.8173  140.0725  157.2072 C.3     1  UNL1        0.0652
      4 S         139.7443  138.9301  157.5000 S.3     1  UNL1       -0.0757
      5 C         141.6816  138.9329  160.8634 C.ar    1  UNL1        0.1669
      6 N         142.7421  139.4132  159.9177 N.ar    1  UNL1       -0.1282
      7 N         142.1456  139.4707  158.5426 N.ar    1  UNL1       -0.1221
      8 C         140.7162  139.0258  158.6385 C.ar    1  UNL1        0.1932
      9 N         140.4295  138.6934  160.0729 N.ar    1  UNL1       -0.2884
     10 C         139.1205  138.2070  160.6205 C.3     1  UNL1        0.1340
     11 C         144.2650  143.0542  165.7204 C.3     1  UNL1        0.0521
     12 C         143.6599  141.9726  164.8754 C.ar    1  UNL1        0.0593
     13 C         143.4970  142.1775  163.3984 C.ar    1  UNL1        0.0147
     14 C         142.8919  141.0960  162.5534 C.ar    1  UNL1        0.0028
     15 C         142.4496  139.8095  163.1853 C.ar    1  UNL1        0.0206
     16 C         141.8444  138.7279  162.3404 C.ar    1  UNL1        0.0374
     17 C         141.4021  137.4414  162.9723 C.ar    1  UNL1        0.0031
     18 C         141.5650  137.2366  164.4493 C.ar    1  UNL1        0.0016
     19 C         142.1702  138.3181  165.2944 C.ar    1  UNL1        0.0191
     20 C         142.6124  139.6046  164.6624 C.ar    1  UNL1        0.0810
     21 N         143.2176  140.6861  165.5074 N.ar    1  UNL1       -0.2497
     22 C         139.1983  143.1952  159.5005 C.3     1  UNL1        0.0721
     23 N         139.3558  142.8911  160.9609 N.3     1  UNL1       -0.2721
     24 C         139.9982  143.9680  161.7842 C.3     1  UNL1        0.0768
     25 C         140.2935  143.9701  163.2550 C.3     1  UNL1        0.0434
     26 C         140.0195  142.8960  164.2653 C.ar    1  UNL1       -0.0233
     27 C         140.4745  143.3035  165.6354 C.ar    1  UNL1        0.0178
     28 C         140.2924  142.3694  166.7949 C.ar    1  UNL1        0.1181
     29 N         140.6390  142.4948  168.2488 N.ar    1  UNL1       -0.2050
     30 C         140.2162  141.2307  168.9369 C.ar    1  UNL1        0.3031
     31 O         139.6083  140.3241  167.9081 O.2     1  UNL1       -0.4321
     32 C         139.6553  141.0278  166.5844 C.ar    1  UNL1        0.1603
     33 C         139.2004  140.6203  165.2143 C.ar    1  UNL1        0.0101
     34 C         138.5633  139.2788  165.0037 C.3     1  UNL1        0.0339
     35 C         139.3825  141.5544  164.0548 C.ar    1  UNL1       -0.0256
     36 C         138.8621  140.9556  162.7818 C.3     1  UNL1        0.0431
     37 C         138.8503  141.5506  161.4048 C.3     1  UNL1        0.0768
     38 C         140.3738  140.9267  170.3973 C.3     1  UNL1        0.4696
     39 F         140.5314  140.6229  171.8577 F       1  UNL1       -0.1619
     40 F         139.9465  142.3246  170.7343 F       1  UNL1       -0.1619
     41 F         140.8011  139.5290  170.0604 F       1  UNL1       -0.1619
@<TRIPOS>BOND
     1    11    12    1
     2    12    13   ar
     3    13    14   ar
     4    14    15   ar
     5    15    16   ar
     6    16     5    1
     7     5     6   ar
     8     6     7   ar
     9     7     8   ar
    10     8     4    1
    11     4     3    1
    12     3     2    1
    13     2     1    1
    14     1    22    1
    15    22    23    1
    16    23    24    1
    17    24    25    1
    18    25    26    1
    19    26    27   ar
    20    27    28   ar
    21    28    29   ar
    22    29    30   ar
    23    30    38    1
    24    38    39    1
    25    38    40    1
    26    38    41    1
    27    30    31   ar
    28    31    32   ar
    29    32    33   ar
    30    33    34    1
    31    33    35   ar
    32    35    36    1
    33    36    37    1
    34     8     9   ar
    35     9    10    1
    36    16    17   ar
    37    17    18   ar
    38    18    19   ar
    39    19    20   ar
    40    20    21   ar
    41    21    12   ar
    42    20    15   ar
    43     9     5   ar
    44    37    23    1
    45    35    26   ar
    46    32    28   ar
