@<TRIPOS>MOLECULE
*****
 33 35 0 0 0
SMALL
GASTEIGER

@<TRIPOS>ATOM
      1 C         141.2650  143.7590  162.6776 C.3     1  UNL1        0.1208
      2 C         142.0285  144.0559  161.4210 C.3     1  UNL1        0.1388
      3 N         141.3245  145.1688  160.7028 N.am    1  UNL1       -0.1885
      4 C         140.1259  145.5598  161.5155 C.2     1  UNL1        0.3219
      5 O         139.1376  146.6336  161.1687 O.2     1  UNL1       -0.2510
      6 N         140.0892  144.6885  162.7360 N.am    1  UNL1       -0.2588
      7 C         142.3174  140.6296  165.7352 C.ar    1  UNL1        0.1387
      8 C         142.1841  142.0657  166.1471 C.ar    1  UNL1        0.0366
      9 C         141.8333  143.1088  165.1279 C.ar    1  UNL1        0.0005
     10 C         141.6158  142.7159  163.6968 C.ar    1  UNL1       -0.0023
     11 C         141.7492  141.2798  163.2848 C.ar    1  UNL1        0.0005
     12 C         142.1000  140.2366  164.3040 C.ar    1  UNL1        0.0366
     13 C         143.4794  138.3899  166.3543 C.3     1  UNL1        0.2525
     14 O         142.6682  139.5864  166.7544 O.3     1  UNL1       -0.4714
     15 N         141.7452  145.7829  159.4005 N.3     1  UNL1       -0.1073
     16 H         142.7501  145.9459  159.4629 H       1  UNL1        0.1715
     17 S         141.5043  145.0508  158.1137 S.O2    1  UNL1        0.0573
     18 C         141.2635  144.3188  156.8268 C.3     1  UNL1        0.1974
     19 O         140.1062  145.5921  158.0674 O.2     1  UNL1       -0.1561
     20 O         142.9025  144.5095  158.1599 O.2     1  UNL1       -0.1561
     21 C         139.0576  144.7381  163.8239 C.3     1  UNL1        0.1000
     22 C         137.8644  143.8309  163.7680 C.3     1  UNL1        0.0479
     23 C         138.0545  142.3439  163.7149 C.ar    1  UNL1       -0.0203
     24 C         137.9660  141.6229  162.4026 C.ar    1  UNL1       -0.0011
     25 C         138.1561  140.1359  162.3495 C.ar    1  UNL1        0.0369
     26 C         138.4347  139.3700  163.6087 C.ar    1  UNL1        0.1468
     27 C         138.5232  140.0910  164.9211 C.ar    1  UNL1        0.0369
     28 C         138.3331  141.5780  164.9741 C.ar    1  UNL1       -0.0011
     29 O         138.6248  137.8830  163.5555 O.3     1  UNL1       -0.4045
     30 C         139.8738  137.2662  164.1118 C.3     1  UNL1        0.5753
     31 F         141.1229  136.6494  164.6680 F       1  UNL1       -0.1328
     32 F         140.5894  137.5554  162.8255 F       1  UNL1       -0.1328
     33 F         139.1582  136.9770  165.3979 F       1  UNL1       -0.1328
@<TRIPOS>BOND
     1    13    14    1
     2    14     7    1
     3     7     8   ar
     4     8     9   ar
     5     9    10   ar
     6     1    10    1
     7     1     2    1
     8     2     3    1
     9     3    15    1
    10    15    17    1
    11    17    18    1
    12    17    19    2
    13    17    20    2
    14     3     4   am
    15     4     5    2
    16     4     6   am
    17     6    21    1
    18    21    22    1
    19    22    23    1
    20    23    24   ar
    21    24    25   ar
    22    25    26   ar
    23    26    29    1
    24    29    30    1
    25    30    31    1
    26    30    32    1
    27    30    33    1
    28    26    27   ar
    29    27    28   ar
    30    10    11   ar
    31    11    12   ar
    32    12     7   ar
    33     6     1    1
    34    28    23   ar
    35    15    16    1
@<TRIPOS>MOLECULE
*****
 33 35 0 0 0
SMALL
GASTEIGER

@<TRIPOS>ATOM
      1 C         141.3079  143.2410  164.7725 C.3     1  UNL1        0.1208
      2 C         140.5190  144.1220  163.8498 C.3     1  UNL1        0.1388
      3 N         141.4873  144.8657  162.9784 N.am    1  UNL1       -0.1885
      4 C         142.8747  144.4444  163.3626 C.2     1  UNL1        0.3219
      5 O         144.1492  144.9401  162.7462 O.2     1  UNL1       -0.2510
      6 N         142.7638  143.4403  164.4714 N.am    1  UNL1       -0.2588
      7 C         139.6059  140.4843  167.8956 C.ar    1  UNL1        0.1387
      8 C         140.4148  141.6779  168.3093 C.ar    1  UNL1        0.0366
      9 C         140.9821  142.5968  167.2682 C.ar    1  UNL1        0.0005
     10 C         140.7406  142.3221  165.8135 C.ar    1  UNL1       -0.0023
     11 C         139.9317  141.1286  165.3999 C.ar    1  UNL1        0.0005
     12 C         139.3644  140.2097  166.4409 C.ar    1  UNL1        0.0366
     13 C         138.5278  140.1238  170.2318 C.3     1  UNL1        0.2525
     14 O         139.0386  139.5655  168.9367 O.3     1  UNL1       -0.4714
     15 N         141.1308  145.8568  161.9104 N.3     1  UNL1       -0.1073
     16 H         141.9673  146.4129  161.7336 H       1  UNL1        0.1715
     17 S         140.6395  145.3777  160.5765 S.O2    1  UNL1        0.0573
     18 C         140.1482  144.8987  159.2427 C.3     1  UNL1        0.1974
     19 O         139.2782  145.9301  160.8795 O.2     1  UNL1       -0.1561
     20 O         142.0007  144.8253  160.2736 O.2     1  UNL1       -0.1561
     21 C         143.9080  142.7556  165.1584 C.3     1  UNL1        0.1000
     22 C         144.4056  141.4347  164.6510 C.3     1  UNL1        0.0479
     23 C         143.4293  140.3825  164.2155 C.ar    1  UNL1       -0.0203
     24 C         142.7905  140.4667  162.8609 C.ar    1  UNL1       -0.0011
     25 C         141.8142  139.4145  162.4253 C.ar    1  UNL1        0.0369
     26 C         141.4766  138.2781  163.3444 C.ar    1  UNL1        0.1468
     27 C         142.1154  138.1939  164.6989 C.ar    1  UNL1        0.0369
     28 C         143.0917  139.2461  165.1345 C.ar    1  UNL1       -0.0011
     29 O         140.5003  137.2260  162.9087 O.3     1  UNL1       -0.4045
     30 C         139.0857  137.6041  162.5832 C.3     1  UNL1        0.5753
     31 F         137.6712  137.9823  162.2577 F       1  UNL1       -0.1328
     32 F         138.7387  137.5615  164.0419 F       1  UNL1       -0.1328
     33 F         139.4328  137.6467  161.1245 F       1  UNL1       -0.1328
@<TRIPOS>BOND
     1    13    14    1
     2    14     7    1
     3     7     8   ar
     4     8     9   ar
     5     9    10   ar
     6     1    10    1
     7     1     2    1
     8     2     3    1
     9     3    15    1
    10    15    17    1
    11    17    18    1
    12    17    19    2
    13    17    20    2
    14     3     4   am
    15     4     5    2
    16     4     6   am
    17     6    21    1
    18    21    22    1
    19    22    23    1
    20    23    24   ar
    21    24    25   ar
    22    25    26   ar
    23    26    29    1
    24    29    30    1
    25    30    31    1
    26    30    32    1
    27    30    33    1
    28    26    27   ar
    29    27    28   ar
    30    10    11   ar
    31    11    12   ar
    32    12     7   ar
    33     6     1    1
    34    28    23   ar
    35    15    16    1
@<TRIPOS>MOLECULE
*****
 33 35 0 0 0
SMALL
GASTEIGER

@<TRIPOS>ATOM
      1 C         139.1435  140.2376  165.0690 C.3     1  UNL1        0.1208
      2 C         138.4955  141.2091  164.1275 C.3     1  UNL1        0.1388
      3 N         138.0264  140.4460  162.9243 N.am    1  UNL1       -0.1885
      4 C         138.3844  139.0028  163.1222 C.2     1  UNL1        0.3219
      5 O         138.1018  137.8848  162.1630 O.2     1  UNL1       -0.2510
      6 N         139.0748  138.8741  164.4476 N.am    1  UNL1       -0.2588
      7 C         140.9722  141.2380  169.0571 C.ar    1  UNL1        0.1387
      8 C         141.4185  141.9655  167.8237 C.ar    1  UNL1        0.0366
      9 C         140.8090  141.6321  166.4943 C.ar    1  UNL1        0.0005
     10 C         139.7530  140.5710  166.3983 C.ar    1  UNL1       -0.0023
     11 C         139.3067  139.8435  167.6318 C.ar    1  UNL1        0.0005
     12 C         139.9163  140.1770  168.9612 C.ar    1  UNL1        0.0366
     13 C         142.5424  142.7173  170.5048 C.3     1  UNL1        0.2525
     14 O         141.5817  141.5714  170.3865 O.3     1  UNL1       -0.4714
     15 N         137.3228  141.0245  161.7326 N.3     1  UNL1       -0.1073
     16 H         136.5860  141.6316  162.0917 H       1  UNL1        0.1715
     17 S         138.0912  141.8260  160.7241 S.O2    1  UNL1        0.0573
     18 C         138.8596  142.6276  159.7156 C.3     1  UNL1        0.1974
     19 O         137.6706  143.0921  161.4098 O.2     1  UNL1       -0.1561
     20 O         138.5119  140.5600  160.0384 O.2     1  UNL1       -0.1561
     21 C         139.6037  137.6046  165.0466 C.3     1  UNL1        0.1000
     22 C         140.9182  137.0484  164.5855 C.3     1  UNL1        0.0479
     23 C         142.0637  137.9726  164.2963 C.ar    1  UNL1       -0.0203
     24 C         142.7384  138.7047  165.4183 C.ar    1  UNL1       -0.0011
     25 C         143.8839  139.6289  165.1291 C.ar    1  UNL1        0.0369
     26 C         144.3547  139.8211  163.7180 C.ar    1  UNL1        0.1468
     27 C         143.6800  139.0891  162.5960 C.ar    1  UNL1        0.0369
     28 C         142.5345  138.1649  162.8852 C.ar    1  UNL1       -0.0011
     29 O         145.5002  140.7454  163.4289 O.3     1  UNL1       -0.4045
     30 C         145.2365  142.1795  163.0774 C.3     1  UNL1        0.5753
     31 F         144.9727  143.6137  162.7260 F       1  UNL1       -0.1328
     32 F         145.3419  142.5539  164.5262 F       1  UNL1       -0.1328
     33 F         145.1311  141.8051  161.6287 F       1  UNL1       -0.1328
@<TRIPOS>BOND
     1    13    14    1
     2    14     7    1
     3     7     8   ar
     4     8     9   ar
     5     9    10   ar
     6     1    10    1
     7     1     2    1
     8     2     3    1
     9     3    15    1
    10    15    17    1
    11    17    18    1
    12    17    19    2
    13    17    20    2
    14     3     4   am
    15     4     5    2
    16     4     6   am
    17     6    21    1
    18    21    22    1
    19    22    23    1
    20    23    24   ar
    21    24    25   ar
    22    25    26   ar
    23    26    29    1
    24    29    30    1
    25    30    31    1
    26    30    32    1
    27    30    33    1
    28    26    27   ar
    29    27    28   ar
    30    10    11   ar
    31    11    12   ar
    32    12     7   ar
    33     6     1    1
    34    28    23   ar
    35    15    16    1
@<TRIPOS>MOLECULE
*****
 33 35 0 0 0
SMALL
GASTEIGER

@<TRIPOS>ATOM
      1 C         142.2144  143.0804  163.9664 C.3     1  UNL1        0.1208
      2 C         141.4603  144.2244  163.3559 C.3     1  UNL1        0.1388
      3 N         142.0012  144.4522  161.9755 N.am    1  UNL1       -0.1885
      4 C         143.0898  143.4491  161.7329 C.2     1  UNL1        0.3219
      5 O         143.9036  143.3170  160.4798 O.2     1  UNL1       -0.2510
      6 N         143.2215  142.6013  162.9633 N.am    1  UNL1       -0.2588
      7 C         141.5690  141.3840  168.0841 C.ar    1  UNL1        0.1387
      8 C         142.9200  141.9033  167.6902 C.ar    1  UNL1        0.0366
      9 C         143.1351  142.4688  166.3176 C.ar    1  UNL1        0.0005
     10 C         141.9993  142.5149  165.3390 C.ar    1  UNL1       -0.0023
     11 C         140.6484  141.9956  165.7329 C.ar    1  UNL1        0.0005
     12 C         140.4333  141.4301  167.1055 C.ar    1  UNL1        0.0366
     13 C         141.9970  139.5193  169.8418 C.3     1  UNL1        0.2525
     14 O         141.3539  140.8185  169.4567 O.3     1  UNL1       -0.4714
     15 N         141.5354  145.4993  161.0078 N.3     1  UNL1       -0.1073
     16 H         142.3597  146.0335  160.7327 H       1  UNL1        0.1715
     17 S         140.8397  145.0944  159.7421 S.O2    1  UNL1        0.0573
     18 C         140.1439  144.6895  158.4765 C.3     1  UNL1        0.1974
     19 O         142.0395  145.5170  158.9473 O.2     1  UNL1       -0.1561
     20 O         139.6398  144.6717  160.5370 O.2     1  UNL1       -0.1561
     21 C         144.1903  141.4726  163.1566 C.3     1  UNL1        0.1000
     22 C         143.7872  140.0703  162.8088 C.3     1  UNL1        0.0479
     23 C         142.4902  139.5146  163.3178 C.ar    1  UNL1       -0.0203
     24 C         141.2424  139.6501  162.4965 C.ar    1  UNL1       -0.0011
     25 C         139.9454  139.0944  163.0055 C.ar    1  UNL1        0.0369
     26 C         139.8963  138.4031  164.3358 C.ar    1  UNL1        0.1468
     27 C         141.1441  138.2676  165.1571 C.ar    1  UNL1        0.0369
     28 C         142.4410  138.8233  164.6481 C.ar    1  UNL1       -0.0011
     29 O         138.5992  137.8474  164.8447 O.3     1  UNL1       -0.4045
     30 C         138.0482  138.3134  166.1597 C.3     1  UNL1        0.5753
     31 F         137.4971  138.7793  167.4747 F       1  UNL1       -0.1328
     32 F         137.9741  136.8917  166.6323 F       1  UNL1       -0.1328
     33 F         138.1223  139.7350  165.6869 F       1  UNL1       -0.1328
@<TRIPOS>BOND
     1    13    14    1
     2    14     7    1
     3     7     8   ar
     4     8     9   ar
     5     9    10   ar
     6     1    10    1
     7     1     2    1
     8     2     3    1
     9     3    15    1
    10    15    17    1
    11    17    18    1
    12    17    19    2
    13    17    20    2
    14     3     4   am
    15     4     5    2
    16     4     6   am
    17     6    21    1
    18    21    22    1
    19    22    23    1
    20    23    24   ar
    21    24    25   ar
    22    25    26   ar
    23    26    29    1
    24    29    30    1
    25    30    31    1
    26    30    32    1
    27    30    33    1
    28    26    27   ar
    29    27    28   ar
    30    10    11   ar
    31    11    12   ar
    32    12     7   ar
    33     6     1    1
    34    28    23   ar
    35    15    16    1
@<TRIPOS>MOLECULE
*****
 33 35 0 0 0
SMALL
GASTEIGER

@<TRIPOS>ATOM
      1 C         140.9642  142.0085  163.0332 C.3     1  UNL1        0.1208
      2 C         140.5795  143.3455  162.4724 C.3     1  UNL1        0.1388
      3 N         141.7246  143.8474  161.6436 N.am    1  UNL1       -0.1885
      4 C         142.8170  142.8206  161.6921 C.2     1  UNL1        0.3219
      5 O         144.1460  142.9139  161.0029 O.2     1  UNL1       -0.2510
      6 N         142.3470  141.6842  162.5510 N.am    1  UNL1       -0.2588
      7 C         138.4171  139.4245  165.6951 C.ar    1  UNL1        0.1387
      8 C         138.7024  138.9977  164.2857 C.ar    1  UNL1        0.0366
      9 C         139.5514  139.8590  163.3984 C.ar    1  UNL1        0.0005
     10 C         140.1152  141.1472  163.9205 C.ar    1  UNL1       -0.0023
     11 C         139.8299  141.5741  165.3299 C.ar    1  UNL1        0.0005
     12 C         138.9809  140.7128  166.2172 C.ar    1  UNL1        0.0366
     13 C         137.6978  137.0700  166.5248 C.3     1  UNL1        0.2525
     14 O         137.5681  138.5632  166.5823 O.3     1  UNL1       -0.4714
     15 N         141.7693  145.1477  160.8972 N.3     1  UNL1       -0.1073
     16 H         142.7528  145.3515  160.7194 H       1  UNL1        0.1715
     17 S         141.0548  145.2845  159.5854 S.O2    1  UNL1        0.0573
     18 C         140.3402  145.4213  158.2737 C.3     1  UNL1        0.1974
     19 O         139.8267  145.7596  160.3039 O.2     1  UNL1       -0.1561
     20 O         142.2828  144.8095  158.8670 O.2     1  UNL1       -0.1561
     21 C         143.1237  140.4415  162.8714 C.3     1  UNL1        0.1000
     22 C         144.0103  140.4020  164.0805 C.3     1  UNL1        0.0479
     23 C         143.4227  140.5882  165.4480 C.ar    1  UNL1       -0.0203
     24 C         143.4142  141.9477  166.0819 C.ar    1  UNL1       -0.0011
     25 C         142.8265  142.1339  167.4493 C.ar    1  UNL1        0.0369
     26 C         142.2474  140.9608  168.1830 C.ar    1  UNL1        0.1468
     27 C         142.2559  139.6013  167.5491 C.ar    1  UNL1        0.0369
     28 C         142.8435  139.4150  166.1816 C.ar    1  UNL1       -0.0011
     29 O         141.6597  141.1471  169.5505 O.3     1  UNL1       -0.4045
     30 C         140.1821  140.9950  169.7589 C.3     1  UNL1        0.5753
     31 F         138.7045  140.8427  169.9674 F       1  UNL1       -0.1328
     32 F         140.4052  139.6323  170.3450 F       1  UNL1       -0.1328
     33 F         139.9591  142.3575  169.1728 F       1  UNL1       -0.1328
@<TRIPOS>BOND
     1    13    14    1
     2    14     7    1
     3     7     8   ar
     4     8     9   ar
     5     9    10   ar
     6     1    10    1
     7     1     2    1
     8     2     3    1
     9     3    15    1
    10    15    17    1
    11    17    18    1
    12    17    19    2
    13    17    20    2
    14     3     4   am
    15     4     5    2
    16     4     6   am
    17     6    21    1
    18    21    22    1
    19    22    23    1
    20    23    24   ar
    21    24    25   ar
    22    25    26   ar
    23    26    29    1
    24    29    30    1
    25    30    31    1
    26    30    32    1
    27    30    33    1
    28    26    27   ar
    29    27    28   ar
    30    10    11   ar
    31    11    12   ar
    32    12     7   ar
    33     6     1    1
    34    28    23   ar
    35    15    16    1
@<TRIPOS>MOLECULE
*****
 33 35 0 0 0
SMALL
GASTEIGER

@<TRIPOS>ATOM
      1 C         139.6612  141.5170  166.0211 C.3     1  UNL1        0.1208
      2 C         140.6734  142.2334  166.8651 C.3     1  UNL1        0.1388
      3 N         140.7150  141.5643  168.2070 N.am    1  UNL1       -0.1885
      4 C         139.7284  140.4345  168.1924 C.2     1  UNL1        0.3219
      5 O         139.4432  139.4983  169.3291 O.2     1  UNL1       -0.2510
      6 N         139.0771  140.4053  166.8414 N.am    1  UNL1       -0.2588
      7 C         138.5684  142.5261  161.7740 C.ar    1  UNL1        0.1387
      8 C         137.6682  142.9424  162.8992 C.ar    1  UNL1        0.0366
      9 C         138.0324  142.6061  164.3149 C.ar    1  UNL1        0.0005
     10 C         139.2969  141.8534  164.6054 C.ar    1  UNL1       -0.0023
     11 C         140.1972  141.4371  163.4802 C.ar    1  UNL1        0.0005
     12 C         139.8330  141.7734  162.0645 C.ar    1  UNL1        0.0366
     13 C         139.1547  142.5422  159.2430 C.3     1  UNL1        0.2525
     14 O         138.2042  142.8625  160.3583 O.3     1  UNL1       -0.4714
     15 N         141.5896  141.9563  169.3608 N.3     1  UNL1       -0.1073
     16 H         140.9896  142.4263  170.0387 H       1  UNL1        0.1715
     17 S         142.3537  140.9074  170.1129 S.O2    1  UNL1        0.0573
     18 C         143.1179  139.8584  170.8650 C.3     1  UNL1        0.1974
     19 O         141.6069  141.2609  171.3648 O.2     1  UNL1       -0.1561
     20 O         143.1006  140.5539  168.8610 O.2     1  UNL1       -0.1561
     21 C         138.0263  139.4347  166.3901 C.3     1  UNL1        0.1000
     22 C         138.4250  138.0847  165.8722 C.3     1  UNL1        0.0479
     23 C         139.3523  137.9756  164.6982 C.ar    1  UNL1       -0.0203
     24 C         140.8317  137.8627  164.9189 C.ar    1  UNL1       -0.0011
     25 C         141.7589  137.7536  163.7449 C.ar    1  UNL1        0.0369
     26 C         141.2068  137.7573  162.3502 C.ar    1  UNL1        0.1468
     27 C         139.7275  137.8701  162.1295 C.ar    1  UNL1        0.0369
     28 C         138.8002  137.9793  163.3035 C.ar    1  UNL1       -0.0011
     29 O         142.1342  137.6481  161.1763 O.3     1  UNL1       -0.4045
     30 C         143.3343  138.5430  161.0828 C.3     1  UNL1        0.5753
     31 F         144.5346  139.4378  160.9894 F       1  UNL1       -0.1328
     32 F         144.2299  137.3698  161.3505 F       1  UNL1       -0.1328
     33 F         142.4388  139.7161  160.8151 F       1  UNL1       -0.1328
@<TRIPOS>BOND
     1    13    14    1
     2    14     7    1
     3     7     8   ar
     4     8     9   ar
     5     9    10   ar
     6     1    10    1
     7     1     2    1
     8     2     3    1
     9     3    15    1
    10    15    17    1
    11    17    18    1
    12    17    19    2
    13    17    20    2
    14     3     4   am
    15     4     5    2
    16     4     6   am
    17     6    21    1
    18    21    22    1
    19    22    23    1
    20    23    24   ar
    21    24    25   ar
    22    25    26   ar
    23    26    29    1
    24    29    30    1
    25    30    31    1
    26    30    32    1
    27    30    33    1
    28    26    27   ar
    29    27    28   ar
    30    10    11   ar
    31    11    12   ar
    32    12     7   ar
    33     6     1    1
    34    28    23   ar
    35    15    16    1
@<TRIPOS>MOLECULE
*****
 33 35 0 0 0
SMALL
GASTEIGER

@<TRIPOS>ATOM
      1 C         142.5632  139.3464  165.0814 C.3     1  UNL1        0.1208
      2 C         141.3615  138.6738  164.4867 C.3     1  UNL1        0.1388
      3 N         141.7545  138.1206  163.1490 N.am    1  UNL1       -0.1885
      4 C         143.1991  138.4513  162.9168 C.2     1  UNL1        0.3219
      5 O         144.0028  138.0882  161.7035 O.2     1  UNL1       -0.2510
      6 N         143.6988  139.2089  164.1111 N.am    1  UNL1       -0.2588
      7 C         142.7316  141.4137  169.0749 C.ar    1  UNL1        0.1387
      8 C         142.7439  139.9154  169.0048 C.ar    1  UNL1        0.0366
      9 C         142.6877  139.2263  167.6737 C.ar    1  UNL1        0.0005
     10 C         142.6193  140.0355  166.4125 C.ar    1  UNL1       -0.0023
     11 C         142.6071  141.5338  166.4826 C.ar    1  UNL1        0.0005
     12 C         142.6632  142.2229  167.8137 C.ar    1  UNL1        0.0366
     13 C         141.6533  141.9542  171.3759 C.3     1  UNL1        0.2525
     14 O         142.7878  142.1028  170.4060 O.3     1  UNL1       -0.4714
     15 N         140.8600  137.3687  162.2085 N.3     1  UNL1       -0.1073
     16 H         140.4032  136.6395  162.7563 H       1  UNL1        0.1715
     17 S         139.7779  138.0923  161.4631 S.O2    1  UNL1        0.0573
     18 C         138.6959  138.8158  160.7177 C.3     1  UNL1        0.1974
     19 O         138.7810  137.6717  162.5020 O.2     1  UNL1       -0.1561
     20 O         140.7748  138.5129  160.4242 O.2     1  UNL1       -0.1561
     21 C         145.0901  139.7363  164.3017 C.3     1  UNL1        0.1000
     22 C         145.5128  141.0019  163.6166 C.3     1  UNL1        0.0479
     23 C         144.5696  142.1660  163.5429 C.ar    1  UNL1       -0.0203
     24 C         143.4784  142.1831  162.5138 C.ar    1  UNL1       -0.0011
     25 C         142.5353  143.3472  162.4401 C.ar    1  UNL1        0.0369
     26 C         142.6833  144.4941  163.3954 C.ar    1  UNL1        0.1468
     27 C         143.7746  144.4770  164.4245 C.ar    1  UNL1        0.0369
     28 C         144.7177  143.3129  164.4982 C.ar    1  UNL1       -0.0011
     29 O         141.7401  145.6582  163.3217 O.3     1  UNL1       -0.4045
     30 C         140.2973  145.4338  162.9783 C.3     1  UNL1        0.5753
     31 F         138.8545  145.2094  162.6349 F       1  UNL1       -0.1328
     32 F         140.5442  145.9617  161.5961 F       1  UNL1       -0.1328
     33 F         140.0505  144.9060  164.3605 F       1  UNL1       -0.1328
@<TRIPOS>BOND
     1    13    14    1
     2    14     7    1
     3     7     8   ar
     4     8     9   ar
     5     9    10   ar
     6     1    10    1
     7     1     2    1
     8     2     3    1
     9     3    15    1
    10    15    17    1
    11    17    18    1
    12    17    19    2
    13    17    20    2
    14     3     4   am
    15     4     5    2
    16     4     6   am
    17     6    21    1
    18    21    22    1
    19    22    23    1
    20    23    24   ar
    21    24    25   ar
    22    25    26   ar
    23    26    29    1
    24    29    30    1
    25    30    31    1
    26    30    32    1
    27    30    33    1
    28    26    27   ar
    29    27    28   ar
    30    10    11   ar
    31    11    12   ar
    32    12     7   ar
    33     6     1    1
    34    28    23   ar
    35    15    16    1
@<TRIPOS>MOLECULE
*****
 33 35 0 0 0
SMALL
GASTEIGER

@<TRIPOS>ATOM
      1 C         139.4731  141.4190  166.0629 C.3     1  UNL1        0.1208
      2 C         139.9406  141.3819  167.4876 C.3     1  UNL1        0.1388
      3 N         139.4100  140.1280  168.1171 N.am    1  UNL1       -0.1885
      4 C         138.6144  139.3902  167.0814 C.2     1  UNL1        0.3219
      5 O         137.9045  138.0839  167.2803 O.2     1  UNL1       -0.2510
      6 N         138.6534  140.1881  165.8118 N.am    1  UNL1       -0.2588
      7 C         140.3715  144.6550  163.0677 C.ar    1  UNL1        0.1387
      8 C         138.9812  144.4987  163.6086 C.ar    1  UNL1        0.0366
      9 C         138.6817  143.4201  164.6070 C.ar    1  UNL1        0.0005
     10 C         139.7725  142.4977  165.0645 C.ar    1  UNL1       -0.0023
     11 C         141.1628  142.6540  164.5235 C.ar    1  UNL1        0.0005
     12 C         141.4623  143.7327  163.5251 C.ar    1  UNL1        0.0366
     13 C         140.7956  145.3946  160.6135 C.3     1  UNL1        0.2525
     14 O         140.6709  145.7337  162.0693 O.3     1  UNL1       -0.4714
     15 N         139.6354  139.6890  169.5336 N.3     1  UNL1       -0.1073
     16 H         139.8473  138.6918  169.5027 H       1  UNL1        0.1715
     17 S         140.7102  140.3348  170.3569 S.O2    1  UNL1        0.0573
     18 C         141.7850  140.9805  171.1802 C.3     1  UNL1        0.1974
     19 O         139.7047  141.2986  170.9137 O.2     1  UNL1       -0.1561
     20 O         141.7157  139.3710  169.8001 O.2     1  UNL1       -0.1561
     21 C         137.9893  139.8198  164.5183 C.3     1  UNL1        0.1000
     22 C         138.7214  138.9840  163.5107 C.3     1  UNL1        0.0479
     23 C         140.1844  139.2106  163.2690 C.ar    1  UNL1       -0.0203
     24 C         141.2007  138.5756  164.1711 C.ar    1  UNL1       -0.0011
     25 C         142.6637  138.8023  163.9295 C.ar    1  UNL1        0.0369
     26 C         143.1103  139.6639  162.7858 C.ar    1  UNL1        0.1468
     27 C         142.0940  140.2989  161.8837 C.ar    1  UNL1        0.0369
     28 C         140.6310  140.0723  162.1253 C.ar    1  UNL1       -0.0011
     29 O         144.5733  139.8905  162.5443 O.3     1  UNL1       -0.4045
     30 C         145.3024  140.9584  163.3045 C.3     1  UNL1        0.5753
     31 F         146.0315  142.0264  164.0647 F       1  UNL1       -0.1328
     32 F         145.0253  141.9342  162.1994 F       1  UNL1       -0.1328
     33 F         145.5794  139.9826  164.4095 F       1  UNL1       -0.1328
@<TRIPOS>BOND
     1    13    14    1
     2    14     7    1
     3     7     8   ar
     4     8     9   ar
     5     9    10   ar
     6     1    10    1
     7     1     2    1
     8     2     3    1
     9     3    15    1
    10    15    17    1
    11    17    18    1
    12    17    19    2
    13    17    20    2
    14     3     4   am
    15     4     5    2
    16     4     6   am
    17     6    21    1
    18    21    22    1
    19    22    23    1
    20    23    24   ar
    21    24    25   ar
    22    25    26   ar
    23    26    29    1
    24    29    30    1
    25    30    31    1
    26    30    32    1
    27    30    33    1
    28    26    27   ar
    29    27    28   ar
    30    10    11   ar
    31    11    12   ar
    32    12     7   ar
    33     6     1    1
    34    28    23   ar
    35    15    16    1
@<TRIPOS>MOLECULE
*****
 33 35 0 0 0
SMALL
GASTEIGER

@<TRIPOS>ATOM
      1 C         140.7792  142.8940  164.4641 C.3     1  UNL1        0.1208
      2 C         141.5656  143.8474  163.6140 C.3     1  UNL1        0.1388
      3 N         140.6012  144.5928  162.7398 N.am    1  UNL1       -0.1885
      4 C         139.2187  144.1001  163.0496 C.2     1  UNL1        0.3219
      5 O         137.9491  144.5741  162.4066 O.2     1  UNL1       -0.2510
      6 N         139.3288  143.0502  164.1152 N.am    1  UNL1       -0.2588
      7 C         142.4739  140.0624  167.5235 C.ar    1  UNL1        0.1387
      8 C         142.7240  139.8265  166.0635 C.ar    1  UNL1        0.0366
      9 C         142.1592  140.7704  165.0437 C.ar    1  UNL1        0.0005
     10 C         141.3441  141.9501  165.4839 C.ar    1  UNL1       -0.0023
     11 C         141.0940  142.1860  166.9439 C.ar    1  UNL1        0.0005
     12 C         141.6588  141.2422  167.9637 C.ar    1  UNL1        0.0366
     13 C         142.4365  139.0486  169.9153 C.3     1  UNL1        0.2525
     14 O         143.0388  139.1185  168.5433 O.3     1  UNL1       -0.4714
     15 N         140.9569  145.6460  161.7327 N.3     1  UNL1       -0.1073
     16 H         141.9085  145.9462  161.9441 H       1  UNL1        0.1715
     17 S         140.9191  145.3260  160.2677 S.O2    1  UNL1        0.0573
     18 C         140.8814  145.0060  158.8028 C.3     1  UNL1        0.1974
     19 O         139.6107  146.0489  160.1436 O.2     1  UNL1       -0.1561
     20 O         142.2276  144.6032  160.3919 O.2     1  UNL1       -0.1561
     21 C         138.1885  142.2900  164.7249 C.3     1  UNL1        0.1000
     22 C         137.7396  140.9949  164.1159 C.3     1  UNL1        0.0479
     23 C         138.7471  140.0581  163.5181 C.ar    1  UNL1       -0.0203
     24 C         139.1566  138.8222  164.2630 C.ar    1  UNL1       -0.0011
     25 C         140.1642  137.8854  163.6652 C.ar    1  UNL1        0.0369
     26 C         140.7622  138.1846  162.3225 C.ar    1  UNL1        0.1468
     27 C         140.3528  139.4205  161.5776 C.ar    1  UNL1        0.0369
     28 C         139.3452  140.3572  162.1754 C.ar    1  UNL1       -0.0011
     29 O         141.7698  137.2477  161.7248 O.3     1  UNL1       -0.4045
     30 C         143.1270  137.7545  161.3360 C.3     1  UNL1        0.5753
     31 F         144.4842  138.2614  160.9473 F       1  UNL1       -0.1328
     32 F         143.3794  138.1675  162.7558 F       1  UNL1       -0.1328
     33 F         142.8745  137.3415  159.9163 F       1  UNL1       -0.1328
@<TRIPOS>BOND
     1    13    14    1
     2    14     7    1
     3     7     8   ar
     4     8     9   ar
     5     9    10   ar
     6     1    10    1
     7     1     2    1
     8     2     3    1
     9     3    15    1
    10    15    17    1
    11    17    18    1
    12    17    19    2
    13    17    20    2
    14     3     4   am
    15     4     5    2
    16     4     6   am
    17     6    21    1
    18    21    22    1
    19    22    23    1
    20    23    24   ar
    21    24    25   ar
    22    25    26   ar
    23    26    29    1
    24    29    30    1
    25    30    31    1
    26    30    32    1
    27    30    33    1
    28    26    27   ar
    29    27    28   ar
    30    10    11   ar
    31    11    12   ar
    32    12     7   ar
    33     6     1    1
    34    28    23   ar
    35    15    16    1
