@<TRIPOS>MOLECULE
*****
 19 22 0 0 0
SMALL
GASTEIGER

@<TRIPOS>ATOM
      1 O         137.5429  138.3670  166.5639 O.2     1  UNL1       -0.2666
      2 C         138.7730  139.1707  166.2626 C.2     1  UNL1        0.2834
      3 C         139.5233  139.8397  167.3760 C.ar    1  UNL1        0.1985
      4 N         139.2916  139.8847  168.8573 N.ar    1  UNL1       -0.2226
      5 C         140.3786  140.7162  169.4715 C.ar    1  UNL1        0.0996
      6 C         140.6623  141.1069  170.8916 C.ar    1  UNL1        0.0207
      7 C         141.8496  141.9665  171.2099 C.ar    1  UNL1        0.0025
      8 C         142.7531  142.4354  170.1082 C.ar    1  UNL1        0.0130
      9 C         142.4693  142.0446  168.6881 C.ar    1  UNL1        0.0749
     10 CL        143.3728  142.5135  167.5863 Cl      1  UNL1       -0.0807
     11 C         141.2820  141.1850  168.3697 C.ar    1  UNL1        0.0897
     12 N         140.7534  140.6433  167.0747 N.ar    1  UNL1       -0.3054
     13 C         141.2334  140.7780  165.6599 C.3     1  UNL1        0.1291
     14 C         140.4831  140.1091  164.5465 C.3     1  UNL1        0.1183
     15 N         139.2529  139.3054  164.8479 N.am    1  UNL1       -0.2716
     16 C         138.5027  138.6365  163.7345 C.3     1  UNL1        0.0938
     17 C         138.0568  139.4343  162.5451 C.3     1  UNL1        0.0199
     18 C         137.6826  139.5047  161.0943 C.3     1  UNL1        0.0018
     19 C         137.6585  140.7460  161.9360 C.3     1  UNL1        0.0018
@<TRIPOS>BOND
     1     1     2    2
     2     2     3    1
     3     3     4   ar
     4     4     5   ar
     5     5     6   ar
     6     6     7   ar
     7     7     8   ar
     8     8     9   ar
     9     9    10    1
    10     9    11   ar
    11    11    12   ar
    12    12    13    1
    13    13    14    1
    14    14    15    1
    15    15    16    1
    16    16    17    1
    17    17    18    1
    18    18    19    1
    19    15     2   am
    20    19    17    1
    21    12     3   ar
    22    11     5   ar
@<TRIPOS>MOLECULE
*****
 19 22 0 0 0
SMALL
GASTEIGER

@<TRIPOS>ATOM
      1 O         143.7450  138.3051  167.1822 O.2     1  UNL1       -0.2666
      2 C         142.4801  139.0845  166.9753 C.2     1  UNL1        0.2834
      3 C         141.6890  138.9091  165.7130 C.ar    1  UNL1        0.1985
      4 N         141.9056  138.0478  164.5042 N.ar    1  UNL1       -0.2226
      5 C         140.7746  138.2948  163.5503 C.ar    1  UNL1        0.0996
      6 C         140.4602  137.7274  162.1979 C.ar    1  UNL1        0.0207
      7 C         139.2302  138.1740  161.4647 C.ar    1  UNL1        0.0025
      8 C         138.3146  139.1880  162.0839 C.ar    1  UNL1        0.0130
      9 C         138.6290  139.7554  163.4364 C.ar    1  UNL1        0.0749
     10 CL        137.7134  140.7694  164.0556 Cl      1  UNL1       -0.0807
     11 C         139.8590  139.3088  164.1696 C.ar    1  UNL1        0.0897
     12 N         140.4242  139.6884  165.5062 N.ar    1  UNL1       -0.3054
     13 C         139.9504  140.6431  166.5617 C.3     1  UNL1        0.1291
     14 C         140.7415  140.8185  167.8240 C.3     1  UNL1        0.1183
     15 N         142.0064  140.0392  168.0308 N.am    1  UNL1       -0.2716
     16 C         142.7975  140.2145  169.2931 C.3     1  UNL1        0.0938
     17 C         143.2178  141.5864  169.7304 C.3     1  UNL1        0.0199
     18 C         144.2886  142.6211  169.9111 C.3     1  UNL1        0.0018
     19 C         142.8748  142.9280  170.3070 C.3     1  UNL1        0.0018
@<TRIPOS>BOND
     1     1     2    2
     2     2     3    1
     3     3     4   ar
     4     4     5   ar
     5     5     6   ar
     6     6     7   ar
     7     7     8   ar
     8     8     9   ar
     9     9    10    1
    10     9    11   ar
    11    11    12   ar
    12    12    13    1
    13    13    14    1
    14    14    15    1
    15    15    16    1
    16    16    17    1
    17    17    18    1
    18    18    19    1
    19    15     2   am
    20    19    17    1
    21    12     3   ar
    22    11     5   ar
@<TRIPOS>MOLECULE
*****
 19 22 0 0 0
SMALL
GASTEIGER

@<TRIPOS>ATOM
      1 O         138.4372  139.3065  166.9535 O.2     1  UNL1       -0.2666
      2 C         139.9019  139.5905  166.7983 C.2     1  UNL1        0.2834
      3 C         140.6116  139.2018  165.5353 C.ar    1  UNL1        0.1985
      4 N         140.1341  138.5313  164.2813 N.ar    1  UNL1       -0.2226
      5 C         141.3037  138.4008  163.3512 C.ar    1  UNL1        0.0996
      6 C         141.4307  137.8211  161.9736 C.ar    1  UNL1        0.0207
      7 C         142.7581  137.8313  161.2752 C.ar    1  UNL1        0.0025
      8 C         143.9585  138.4212  161.9543 C.ar    1  UNL1        0.0130
      9 C         143.8314  139.0009  163.3319 C.ar    1  UNL1        0.0749
     10 CL        145.0317  139.5908  164.0110 Cl      1  UNL1       -0.0807
     11 C         142.5040  138.9907  164.0303 C.ar    1  UNL1        0.0897
     12 N         142.0762  139.4857  165.3801 N.ar    1  UNL1       -0.3054
     13 C         142.8312  140.1583  166.4881 C.3     1  UNL1        0.1291
     14 C         142.1215  140.5470  167.7511 C.3     1  UNL1        0.1183
     15 N         140.6568  140.2631  167.9063 N.am    1  UNL1       -0.2716
     16 C         139.9471  140.6518  169.1693 C.3     1  UNL1        0.0938
     17 C         140.0339  142.0613  169.6750 C.3     1  UNL1        0.0199
     18 C         139.7276  143.0848  170.7279 C.3     1  UNL1        0.0018
     19 C         140.4904  143.4791  169.4980 C.3     1  UNL1        0.0018
@<TRIPOS>BOND
     1     1     2    2
     2     2     3    1
     3     3     4   ar
     4     4     5   ar
     5     5     6   ar
     6     6     7   ar
     7     7     8   ar
     8     8     9   ar
     9     9    10    1
    10     9    11   ar
    11    11    12   ar
    12    12    13    1
    13    13    14    1
    14    14    15    1
    15    15    16    1
    16    16    17    1
    17    17    18    1
    18    18    19    1
    19    15     2   am
    20    19    17    1
    21    12     3   ar
    22    11     5   ar
@<TRIPOS>MOLECULE
*****
 19 22 0 0 0
SMALL
GASTEIGER

@<TRIPOS>ATOM
      1 O         141.7836  138.6971  163.9536 O.2     1  UNL1       -0.2666
      2 C         140.8138  138.9644  165.0663 C.2     1  UNL1        0.2834
      3 C         141.2115  139.8474  166.2118 C.ar    1  UNL1        0.1985
      4 N         142.4803  140.5877  166.5150 N.ar    1  UNL1       -0.2226
      5 C         142.2947  141.3126  167.8151 C.ar    1  UNL1        0.0996
      6 C         143.2068  142.2011  168.6079 C.ar    1  UNL1        0.0207
      7 C         142.7353  142.7972  169.9011 C.ar    1  UNL1        0.0025
      8 C         141.3518  142.5048  170.4014 C.ar    1  UNL1        0.0130
      9 C         140.4397  141.6164  169.6085 C.ar    1  UNL1        0.0749
     10 CL        139.0561  141.3240  170.1088 Cl      1  UNL1       -0.0807
     11 C         140.9112  141.0203  168.3153 C.ar    1  UNL1        0.0897
     12 N         140.2417  140.1147  167.3245 N.ar    1  UNL1       -0.3054
     13 C         138.8743  139.4991  167.2916 C.3     1  UNL1        0.1291
     14 C         138.4767  138.6160  166.1461 C.3     1  UNL1        0.1183
     15 N         139.4464  138.3487  165.0334 N.am    1  UNL1       -0.2716
     16 C         139.0488  137.4657  163.8879 C.3     1  UNL1        0.0938
     17 C         138.6864  138.0717  162.5645 C.3     1  UNL1        0.0199
     18 C         139.0095  138.3327  161.1231 C.3     1  UNL1        0.0018
     19 C         137.7356  138.8603  161.7136 C.3     1  UNL1        0.0018
@<TRIPOS>BOND
     1     1     2    2
     2     2     3    1
     3     3     4   ar
     4     4     5   ar
     5     5     6   ar
     6     6     7   ar
     7     7     8   ar
     8     8     9   ar
     9     9    10    1
    10     9    11   ar
    11    11    12   ar
    12    12    13    1
    13    13    14    1
    14    14    15    1
    15    15    16    1
    16    16    17    1
    17    17    18    1
    18    18    19    1
    19    15     2   am
    20    19    17    1
    21    12     3   ar
    22    11     5   ar
@<TRIPOS>MOLECULE
*****
 19 22 0 0 0
SMALL
GASTEIGER

@<TRIPOS>ATOM
      1 O         138.1097  143.2968  161.0200 O.2     1  UNL1       -0.2666
      2 C         138.9326  143.5267  162.2528 C.2     1  UNL1        0.2834
      3 C         138.8889  142.5369  163.3791 C.ar    1  UNL1        0.1985
      4 N         138.1348  141.2527  163.5581 N.ar    1  UNL1       -0.2226
      5 C         138.4917  140.6889  164.9016 C.ar    1  UNL1        0.0996
      6 C         138.0550  139.4444  165.6159 C.ar    1  UNL1        0.0207
      7 C         138.5930  139.1357  166.9816 C.ar    1  UNL1        0.0025
      8 C         139.5677  140.0715  167.6329 C.ar    1  UNL1        0.0130
      9 C         140.0044  141.3160  166.9186 C.ar    1  UNL1        0.0749
     10 CL        140.9791  142.2518  167.5699 Cl      1  UNL1       -0.0807
     11 C         139.4664  141.6248  165.5529 C.ar    1  UNL1        0.0897
     12 N         139.7119  142.7669  164.6119 N.ar    1  UNL1       -0.3054
     13 C         140.5785  143.9865  164.7185 C.3     1  UNL1        0.1291
     14 C         140.6222  144.9762  163.5922 C.3     1  UNL1        0.1183
     15 N         139.7992  144.7463  162.3593 N.am    1  UNL1       -0.2716
     16 C         139.8429  145.7361  161.2330 C.3     1  UNL1        0.0938
     17 C         140.4604  145.3524  159.9210 C.3     1  UNL1        0.0199
     18 C         140.4328  145.3581  158.4212 C.3     1  UNL1        0.0018
     19 C         141.5574  144.6821  159.1481 C.3     1  UNL1        0.0018
@<TRIPOS>BOND
     1     1     2    2
     2     2     3    1
     3     3     4   ar
     4     4     5   ar
     5     5     6   ar
     6     6     7   ar
     7     7     8   ar
     8     8     9   ar
     9     9    10    1
    10     9    11   ar
    11    11    12   ar
    12    12    13    1
    13    13    14    1
    14    14    15    1
    15    15    16    1
    16    16    17    1
    17    17    18    1
    18    18    19    1
    19    15     2   am
    20    19    17    1
    21    12     3   ar
    22    11     5   ar
@<TRIPOS>MOLECULE
*****
 19 22 0 0 0
SMALL
GASTEIGER

@<TRIPOS>ATOM
      1 O         138.7741  139.5224  168.3316 O.2     1  UNL1       -0.2666
      2 C         139.8812  139.8330  167.3684 C.2     1  UNL1        0.2834
      3 C         139.7536  139.4388  165.9267 C.ar    1  UNL1        0.1985
      4 N         138.6635  138.7395  165.1701 N.ar    1  UNL1       -0.2226
      5 C         139.0969  138.6178  163.7392 C.ar    1  UNL1        0.0996
      6 C         138.4304  138.0193  162.5360 C.ar    1  UNL1        0.0207
      7 C         139.1219  138.0450  161.2052 C.ar    1  UNL1        0.0025
      8 C         140.4799  138.6691  161.0776 C.ar    1  UNL1        0.0130
      9 C         141.1464  139.2676  162.2807 C.ar    1  UNL1        0.0749
     10 CL        142.5044  139.8918  162.1530 Cl      1  UNL1       -0.0807
     11 C         140.4549  139.2420  163.6115 C.ar    1  UNL1        0.0897
     12 N         140.8607  139.7494  164.9635 N.ar    1  UNL1       -0.3054
     13 C         142.0954  140.4541  165.4419 C.3     1  UNL1        0.1291
     14 C         142.2230  140.8483  166.8836 C.3     1  UNL1        0.1183
     15 N         141.1159  140.5377  167.8468 N.am    1  UNL1       -0.2716
     16 C         141.2435  140.9319  169.2885 C.3     1  UNL1        0.0938
     17 C         140.6299  142.2120  169.7731 C.3     1  UNL1        0.0199
     18 C         140.5051  143.7046  169.6932 C.3     1  UNL1        0.0018
     19 C         139.6920  142.9365  170.6926 C.3     1  UNL1        0.0018
@<TRIPOS>BOND
     1     1     2    2
     2     2     3    1
     3     3     4   ar
     4     4     5   ar
     5     5     6   ar
     6     6     7   ar
     7     7     8   ar
     8     8     9   ar
     9     9    10    1
    10     9    11   ar
    11    11    12   ar
    12    12    13    1
    13    13    14    1
    14    14    15    1
    15    15    16    1
    16    16    17    1
    17    17    18    1
    18    18    19    1
    19    15     2   am
    20    19    17    1
    21    12     3   ar
    22    11     5   ar
@<TRIPOS>MOLECULE
*****
 19 22 0 0 0
SMALL
GASTEIGER

@<TRIPOS>ATOM
      1 O         144.2372  143.3063  166.4650 O.2     1  UNL1       -0.2666
      2 C         143.4316  142.0435  166.3849 C.2     1  UNL1        0.2834
      3 C         143.4346  141.2308  165.1241 C.ar    1  UNL1        0.1985
      4 N         144.1290  141.4218  163.8084 N.ar    1  UNL1       -0.2226
      5 C         143.7527  140.2771  162.9150 C.ar    1  UNL1        0.0996
      6 C         144.1343  139.9369  161.5049 C.ar    1  UNL1        0.0207
      7 C         143.5890  138.6982  160.8584 C.ar    1  UNL1        0.0025
      8 C         142.6619  137.7996  161.6220 C.ar    1  UNL1        0.0130
      9 C         142.2802  138.1398  163.0322 C.ar    1  UNL1        0.0749
     10 CL        141.3532  137.2413  163.7958 Cl      1  UNL1       -0.0807
     11 C         142.8256  139.3786  163.6787 C.ar    1  UNL1        0.0897
     12 N         142.6290  139.9680  165.0439 N.ar    1  UNL1       -0.3054
     13 C         141.8206  139.5179  166.2245 C.3     1  UNL1        0.1291
     14 C         141.8176  140.3306  167.4853 C.3     1  UNL1        0.1183
     15 N         142.6232  141.5934  167.5655 N.am    1  UNL1       -0.2716
     16 C         142.6203  142.4062  168.8262 C.3     1  UNL1        0.0938
     17 C         141.3207  142.8522  169.4280 C.3     1  UNL1        0.0199
     18 C         139.9873  142.5225  170.0308 C.3     1  UNL1        0.0018
     19 C         140.4032  143.9544  169.8676 C.3     1  UNL1        0.0018
@<TRIPOS>BOND
     1     1     2    2
     2     2     3    1
     3     3     4   ar
     4     4     5   ar
     5     5     6   ar
     6     6     7   ar
     7     7     8   ar
     8     8     9   ar
     9     9    10    1
    10     9    11   ar
    11    11    12   ar
    12    12    13    1
    13    13    14    1
    14    14    15    1
    15    15    16    1
    16    16    17    1
    17    17    18    1
    18    18    19    1
    19    15     2   am
    20    19    17    1
    21    12     3   ar
    22    11     5   ar
@<TRIPOS>MOLECULE
*****
 19 22 0 0 0
SMALL
GASTEIGER

@<TRIPOS>ATOM
      1 O         139.4651  139.6722  168.6023 O.2     1  UNL1       -0.2666
      2 C         139.8224  140.5207  167.4180 C.2     1  UNL1        0.2834
      3 C         139.6146  139.9949  166.0287 C.ar    1  UNL1        0.1985
      4 N         139.0797  138.6895  165.5190 N.ar    1  UNL1       -0.2226
      5 C         139.1064  138.7311  164.0198 C.ar    1  UNL1        0.0996
      6 C         138.6999  137.7289  162.9805 C.ar    1  UNL1        0.0207
      7 C         138.8448  138.0578  161.5243 C.ar    1  UNL1        0.0025
      8 C         139.3962  139.3890  161.1073 C.ar    1  UNL1        0.0130
      9 C         139.8027  140.3912  162.1466 C.ar    1  UNL1        0.0749
     10 CL        140.3541  141.7224  161.7297 Cl      1  UNL1       -0.0807
     11 C         139.6578  140.0623  163.6029 C.ar    1  UNL1        0.0897
     12 N         139.9719  140.8433  164.8444 N.ar    1  UNL1       -0.3054
     13 C         140.5371  142.2175  165.0495 C.3     1  UNL1        0.1291
     14 C         140.7449  142.7433  166.4389 C.3     1  UNL1        0.1183
     15 N         140.3876  141.8949  167.6232 N.am    1  UNL1       -0.2716
     16 C         140.5955  142.4206  169.0126 C.3     1  UNL1        0.0938
     17 C         141.9857  142.5964  169.5478 C.3     1  UNL1        0.0199
     18 C         143.4559  142.3114  169.4632 C.3     1  UNL1        0.0018
     19 C         142.9233  143.1857  170.5595 C.3     1  UNL1        0.0018
@<TRIPOS>BOND
     1     1     2    2
     2     2     3    1
     3     3     4   ar
     4     4     5   ar
     5     5     6   ar
     6     6     7   ar
     7     7     8   ar
     8     8     9   ar
     9     9    10    1
    10     9    11   ar
    11    11    12   ar
    12    12    13    1
    13    13    14    1
    14    14    15    1
    15    15    16    1
    16    16    17    1
    17    17    18    1
    18    18    19    1
    19    15     2   am
    20    19    17    1
    21    12     3   ar
    22    11     5   ar
@<TRIPOS>MOLECULE
*****
 19 22 0 0 0
SMALL
GASTEIGER

@<TRIPOS>ATOM
      1 O         144.0429  144.1796  164.4738 O.2     1  UNL1       -0.2666
      2 C         142.8352  143.3267  164.7270 C.2     1  UNL1        0.2834
      3 C         142.6629  142.6449  166.0520 C.ar    1  UNL1        0.1985
      4 N         143.5101  142.6281  167.2898 N.ar    1  UNL1       -0.2226
      5 C         142.8260  141.7648  168.3080 C.ar    1  UNL1        0.0996
      6 C         143.1954  141.3824  169.7106 C.ar    1  UNL1        0.0207
      7 C         142.2948  140.4834  170.5047 C.ar    1  UNL1        0.0025
      8 C         141.0248  139.9667  169.8962 C.ar    1  UNL1        0.0130
      9 C         140.6554  140.3491  168.4936 C.ar    1  UNL1        0.0749
     10 CL        139.3855  139.8324  167.8851 Cl      1  UNL1       -0.0807
     11 C         141.5560  141.2481  167.6995 C.ar    1  UNL1        0.0897
     12 N         141.4553  141.7921  166.3052 N.ar    1  UNL1       -0.3054
     13 C         140.4199  141.6210  165.2335 C.3     1  UNL1        0.1291
     14 C         140.5921  142.3028  163.9085 C.3     1  UNL1        0.1183
     15 N         141.7998  143.1556  163.6553 N.am    1  UNL1       -0.2716
     16 C         141.9720  143.8374  162.3303 C.3     1  UNL1        0.0938
     17 C         140.9724  144.8600  161.8774 C.3     1  UNL1        0.0199
     18 C         140.3005  145.6191  160.7719 C.3     1  UNL1        0.0018
     19 C         139.9129  145.8721  162.1986 C.3     1  UNL1        0.0018
@<TRIPOS>BOND
     1     1     2    2
     2     2     3    1
     3     3     4   ar
     4     4     5   ar
     5     5     6   ar
     6     6     7   ar
     7     7     8   ar
     8     8     9   ar
     9     9    10    1
    10     9    11   ar
    11    11    12   ar
    12    12    13    1
    13    13    14    1
    14    14    15    1
    15    15    16    1
    16    16    17    1
    17    17    18    1
    18    18    19    1
    19    15     2   am
    20    19    17    1
    21    12     3   ar
    22    11     5   ar
