@<TRIPOS>MOLECULE
*****
 28 31 0 0 0
SMALL
GASTEIGER

@<TRIPOS>ATOM
      1 O         144.2937  142.9816  159.4927 O.2     1  UNL1       -0.2734
      2 C         144.1577  141.8245  160.4374 C.2     1  UNL1        0.2401
      3 N         143.7811  140.4699  159.9147 N.am    1  UNL1       -0.2770
      4 C         143.6722  139.3829  160.9428 C.3     1  UNL1        0.0949
      5 C         143.3185  137.9389  160.7431 C.3     1  UNL1        0.0388
      6 C         142.9864  137.2253  159.4663 C.3     1  UNL1        0.0739
      7 N         142.9260  137.7793  158.0736 N.3     1  UNL1       -0.2725
      8 C         143.1827  139.1839  157.6139 C.3     1  UNL1        0.0938
      9 C         143.5633  140.3813  158.4334 C.3     1  UNL1        0.1107
     10 C         144.3983  142.0219  161.9047 C.3     1  UNL1        0.1355
     11 C         143.3769  142.4518  162.9156 C.3     1  UNL1        0.0700
     12 C         144.0499  142.5197  164.2545 C.3     1  UNL1        0.1834
     13 C         145.4872  142.1319  164.0710 C.3     1  UNL1        0.1130
     14 N         145.7025  141.8243  162.6188 N.3     1  UNL1       -0.2882
     15 H         146.0128  140.8585  162.5119 H       1  UNL1        0.1237
     16 O         143.3996  142.9074  165.5495 O.3     1  UNL1       -0.4777
     17 C         143.1352  141.8669  166.5971 C.ar    1  UNL1        0.1386
     18 C         143.1281  142.2481  168.0478 C.ar    1  UNL1        0.0392
     19 C         142.8637  141.2077  169.0953 C.ar    1  UNL1        0.0327
     20 C         142.6065  139.7859  168.6923 C.ar    1  UNL1        0.1403
     21 F         142.3421  138.7454  169.7398 F       1  UNL1       -0.2042
     22 C         142.6137  139.4047  167.2415 C.ar    1  UNL1        0.0327
     23 C         142.8780  140.4453  166.1940 C.ar    1  UNL1        0.0392
     24 C         142.5605  136.7993  156.9986 C.3     1  UNL1        0.0576
     25 C         143.4745  135.7785  156.3882 C.3     1  UNL1        0.0160
     26 C         142.6957  135.0162  155.3575 C.3     1  UNL1        0.0014
     27 C         141.3003  135.5659  155.3308 C.3     1  UNL1        0.0014
     28 C         141.2167  136.6679  156.3451 C.3     1  UNL1        0.0160
@<TRIPOS>BOND
     1     1     2    2
     2     2    10    1
     3    10    11    1
     4    11    12    1
     5    12    16    1
     6    16    17    1
     7    17    18   ar
     8    18    19   ar
     9    19    20   ar
    10    20    21    1
    11    20    22   ar
    12    22    23   ar
    13    12    13    1
    14    13    14    1
    15     2     3   am
    16     3     4    1
    17     4     5    1
    18     5     6    1
    19     6     7    1
    20     7    24    1
    21    24    25    1
    22    25    26    1
    23    26    27    1
    24    27    28    1
    25     7     8    1
    26     8     9    1
    27    14    10    1
    28     9     3    1
    29    23    17   ar
    30    28    24    1
    31    14    15    1
@<TRIPOS>MOLECULE
*****
 28 31 0 0 0
SMALL
GASTEIGER

@<TRIPOS>ATOM
      1 O         138.7384  139.1751  158.0165 O.2     1  UNL1       -0.2734
      2 C         140.0089  138.7853  158.7120 C.2     1  UNL1        0.2401
      3 N         140.0204  138.5908  160.1993 N.am    1  UNL1       -0.2770
      4 C         141.3413  138.2019  160.7946 C.3     1  UNL1        0.0949
      5 C         141.6775  137.9371  162.2323 C.3     1  UNL1        0.0388
      6 C         140.7760  137.9958  163.4296 C.3     1  UNL1        0.0739
      7 N         139.3156  138.3337  163.4852 N.3     1  UNL1       -0.2725
      8 C         138.3960  138.6964  162.3570 C.3     1  UNL1        0.0938
      9 C         138.7098  138.8108  160.8947 C.3     1  UNL1        0.1107
     10 C         141.2679  138.5899  157.9203 C.3     1  UNL1        0.1355
     11 C         141.7181  137.3093  157.2819 C.3     1  UNL1        0.0700
     12 C         143.0261  137.5687  156.5950 C.3     1  UNL1        0.1834
     13 C         143.3843  139.0094  156.8089 C.3     1  UNL1        0.1130
     14 N         142.2977  139.6405  157.6280 N.3     1  UNL1       -0.2882
     15 H         141.8719  140.4069  157.1066 H       1  UNL1        0.1237
     16 O         143.8341  136.5636  155.8287 O.3     1  UNL1       -0.4777
     17 C         143.4244  135.1207  155.8211 C.ar    1  UNL1        0.1386
     18 C         143.7280  134.2486  157.0032 C.ar    1  UNL1        0.0392
     19 C         143.3183  132.8057  156.9956 C.ar    1  UNL1        0.0327
     20 C         142.6051  132.2348  155.8060 C.ar    1  UNL1        0.1403
     21 F         142.1954  130.7919  155.7984 F       1  UNL1       -0.2042
     22 C         142.3015  133.1069  154.6239 C.ar    1  UNL1        0.0327
     23 C         142.7112  134.5498  154.6315 C.ar    1  UNL1        0.0392
     24 C         138.6924  138.3051  164.8493 C.3     1  UNL1        0.0576
     25 C         138.1745  137.0880  165.5567 C.3     1  UNL1        0.0160
     26 C         137.6397  137.5192  166.8901 C.3     1  UNL1        0.0014
     27 C         137.8271  139.0029  167.0068 C.3     1  UNL1        0.0014
     28 C         138.4777  139.4886  165.7455 C.3     1  UNL1        0.0160
@<TRIPOS>BOND
     1     1     2    2
     2     2    10    1
     3    10    11    1
     4    11    12    1
     5    12    16    1
     6    16    17    1
     7    17    18   ar
     8    18    19   ar
     9    19    20   ar
    10    20    21    1
    11    20    22   ar
    12    22    23   ar
    13    12    13    1
    14    13    14    1
    15     2     3   am
    16     3     4    1
    17     4     5    1
    18     5     6    1
    19     6     7    1
    20     7    24    1
    21    24    25    1
    22    25    26    1
    23    26    27    1
    24    27    28    1
    25     7     8    1
    26     8     9    1
    27    14    10    1
    28     9     3    1
    29    23    17   ar
    30    28    24    1
    31    14    15    1
@<TRIPOS>MOLECULE
*****
 28 31 0 0 0
SMALL
GASTEIGER

@<TRIPOS>ATOM
      1 O         144.2136  137.9114  161.0772 O.2     1  UNL1       -0.2734
      2 C         142.8533  138.0134  160.4535 C.2     1  UNL1        0.2401
      3 N         141.6324  138.0751  161.3227 N.am    1  UNL1       -0.2770
      4 C         140.3225  138.1758  160.5987 C.3     1  UNL1        0.0949
      5 C         138.9394  138.2543  161.1743 C.3     1  UNL1        0.0388
      6 C         138.5248  138.2513  162.6157 C.3     1  UNL1        0.0739
      7 N         139.3907  138.1691  163.8379 N.3     1  UNL1       -0.2725
      8 C         140.8851  138.0697  163.9202 C.3     1  UNL1        0.0938
      9 C         141.8827  138.0278  162.8008 C.3     1  UNL1        0.1107
     10 C         142.7138  138.0537  158.9605 C.3     1  UNL1        0.1355
     11 C         142.8086  136.8777  158.0342 C.3     1  UNL1        0.0700
     12 C         142.6085  137.3742  156.6329 C.3     1  UNL1        0.1834
     13 C         142.3900  138.8569  156.6933 C.3     1  UNL1        0.1130
     14 N         142.4551  139.2768  158.1318 N.3     1  UNL1       -0.2882
     15 H         141.5702  139.7018  158.4088 H       1  UNL1        0.1237
     16 O         142.6241  136.5352  155.3895 O.3     1  UNL1       -0.4777
     17 C         142.5620  135.0400  155.4929 C.ar    1  UNL1        0.1386
     18 C         143.7902  134.2621  155.8623 C.ar    1  UNL1        0.0392
     19 C         143.7282  132.7671  155.9656 C.ar    1  UNL1        0.0327
     20 C         142.4379  132.0497  155.6996 C.ar    1  UNL1        0.1403
     21 F         142.3759  130.5546  155.8029 F       1  UNL1       -0.2042
     22 C         141.2098  132.8276  155.3302 C.ar    1  UNL1        0.0327
     23 C         141.2718  134.3228  155.2268 C.ar    1  UNL1        0.0392
     24 C         138.6664  138.1891  165.1512 C.3     1  UNL1        0.0576
     25 C         138.4712  139.3872  166.0324 C.3     1  UNL1        0.0160
     26 C         137.6942  138.9530  167.2398 C.3     1  UNL1        0.0014
     27 C         137.4092  137.4865  167.1048 C.3     1  UNL1        0.0014
     28 C         138.0100  137.0144  165.8140 C.3     1  UNL1        0.0160
@<TRIPOS>BOND
     1     1     2    2
     2     2    10    1
     3    10    11    1
     4    11    12    1
     5    12    16    1
     6    16    17    1
     7    17    18   ar
     8    18    19   ar
     9    19    20   ar
    10    20    21    1
    11    20    22   ar
    12    22    23   ar
    13    12    13    1
    14    13    14    1
    15     2     3   am
    16     3     4    1
    17     4     5    1
    18     5     6    1
    19     6     7    1
    20     7    24    1
    21    24    25    1
    22    25    26    1
    23    26    27    1
    24    27    28    1
    25     7     8    1
    26     8     9    1
    27    14    10    1
    28     9     3    1
    29    23    17   ar
    30    28    24    1
    31    14    15    1
@<TRIPOS>MOLECULE
*****
 28 31 0 0 0
SMALL
GASTEIGER

@<TRIPOS>ATOM
      1 O         141.2650  138.5110  163.2929 O.2     1  UNL1       -0.2734
      2 C         140.2900  139.5466  163.7692 C.2     1  UNL1        0.2401
      3 N         139.9827  140.7380  162.9113 N.am    1  UNL1       -0.2770
      4 C         138.9949  141.7127  163.4808 C.3     1  UNL1        0.0949
      5 C         138.4842  142.9873  162.8770 C.3     1  UNL1        0.0388
      6 C         138.8353  143.6021  161.5547 C.3     1  UNL1        0.0739
      7 N         139.7837  143.0942  160.5094 N.3     1  UNL1       -0.2725
      8 C         140.6153  141.8460  160.5284 C.3     1  UNL1        0.0938
      9 C         140.7038  140.7974  161.5974 C.3     1  UNL1        0.1107
     10 C         139.6223  139.3908  165.1033 C.3     1  UNL1        0.1355
     11 C         140.1239  139.9329  166.4089 C.3     1  UNL1        0.0700
     12 C         139.1474  139.5426  167.4786 C.3     1  UNL1        0.1834
     13 C         138.0424  138.7594  166.8341 C.3     1  UNL1        0.1130
     14 N         138.3359  138.6655  165.3661 N.3     1  UNL1       -0.2882
     15 H         137.5804  139.0969  164.8338 H       1  UNL1        0.1237
     16 O         139.2568  139.8770  168.9368 O.3     1  UNL1       -0.4777
     17 C         140.3361  140.8024  169.4151 C.ar    1  UNL1        0.1386
     18 C         141.6739  140.2524  169.8122 C.ar    1  UNL1        0.0392
     19 C         142.7532  141.1776  170.2906 C.ar    1  UNL1        0.0327
     20 C         142.4947  142.6529  170.3719 C.ar    1  UNL1        0.1403
     21 F         143.5740  143.5783  170.8503 F       1  UNL1       -0.2042
     22 C         141.1569  143.2029  169.9748 C.ar    1  UNL1        0.0327
     23 C         140.0776  142.2776  169.4965 C.ar    1  UNL1        0.0392
     24 C         139.9183  143.9473  159.2830 C.3     1  UNL1        0.0576
     25 C         140.3892  145.3710  159.2466 C.3     1  UNL1        0.0160
     26 C         140.3676  145.8301  157.8188 C.3     1  UNL1        0.0014
     27 C         139.8832  144.6901  156.9727 C.3     1  UNL1        0.0014
     28 C         139.6055  143.5265  157.8776 C.3     1  UNL1        0.0160
@<TRIPOS>BOND
     1     1     2    2
     2     2    10    1
     3    10    11    1
     4    11    12    1
     5    12    16    1
     6    16    17    1
     7    17    18   ar
     8    18    19   ar
     9    19    20   ar
    10    20    21    1
    11    20    22   ar
    12    22    23   ar
    13    12    13    1
    14    13    14    1
    15     2     3   am
    16     3     4    1
    17     4     5    1
    18     5     6    1
    19     6     7    1
    20     7    24    1
    21    24    25    1
    22    25    26    1
    23    26    27    1
    24    27    28    1
    25     7     8    1
    26     8     9    1
    27    14    10    1
    28     9     3    1
    29    23    17   ar
    30    28    24    1
    31    14    15    1
@<TRIPOS>MOLECULE
*****
 28 31 0 0 0
SMALL
GASTEIGER

@<TRIPOS>ATOM
      1 O         137.7240  143.8824  162.5328 O.2     1  UNL1       -0.2734
      2 C         138.3069  142.5058  162.6569 C.2     1  UNL1        0.2401
      3 N         139.1627  142.1575  163.8385 N.am    1  UNL1       -0.2770
      4 C         139.6952  140.7554  163.8656 C.3     1  UNL1        0.0949
      5 C         140.5695  140.1068  164.8977 C.3     1  UNL1        0.0388
      6 C         141.1270  140.7001  166.1574 C.3     1  UNL1        0.0739
      7 N         140.9481  142.0884  166.6964 N.3     1  UNL1       -0.2725
      8 C         140.1674  143.2264  166.1087 C.3     1  UNL1        0.0938
      9 C         139.3728  143.2571  164.8367 C.3     1  UNL1        0.1107
     10 C         138.0339  141.4777  161.5994 C.3     1  UNL1        0.1355
     11 C         138.6505  141.4335  160.2327 C.3     1  UNL1        0.0700
     12 C         138.0941  140.2417  159.5115 C.3     1  UNL1        0.1834
     13 C         137.1337  139.5493  160.4325 C.3     1  UNL1        0.1130
     14 N         137.0965  140.3132  161.7228 N.3     1  UNL1       -0.2882
     15 H         137.3925  139.7104  162.4906 H       1  UNL1        0.1237
     16 O         138.4379  139.8168  158.1146 O.3     1  UNL1       -0.4777
     17 C         139.6474  138.9652  157.8658 C.ar    1  UNL1        0.1386
     18 C         140.8133  139.0249  158.8078 C.ar    1  UNL1        0.0392
     19 C         142.0227  138.1734  158.5591 C.ar    1  UNL1        0.0327
     20 C         142.0665  137.2622  157.3684 C.ar    1  UNL1        0.1403
     21 F         143.2760  136.4106  157.1197 F       1  UNL1       -0.2042
     22 C         140.9007  137.2025  156.4265 C.ar    1  UNL1        0.0327
     23 C         139.6912  138.0541  156.6752 C.ar    1  UNL1        0.0392
     24 C         141.6415  142.3769  167.9948 C.3     1  UNL1        0.0576
     25 C         143.0804  142.0918  168.3083 C.3     1  UNL1        0.0160
     26 C         143.3461  142.5398  169.7149 C.3     1  UNL1        0.0014
     27 C         142.0713  143.1018  170.2709 C.3     1  UNL1        0.0014
     28 C         141.0178  143.0012  169.2078 C.3     1  UNL1        0.0160
@<TRIPOS>BOND
     1     1     2    2
     2     2    10    1
     3    10    11    1
     4    11    12    1
     5    12    16    1
     6    16    17    1
     7    17    18   ar
     8    18    19   ar
     9    19    20   ar
    10    20    21    1
    11    20    22   ar
    12    22    23   ar
    13    12    13    1
    14    13    14    1
    15     2     3   am
    16     3     4    1
    17     4     5    1
    18     5     6    1
    19     6     7    1
    20     7    24    1
    21    24    25    1
    22    25    26    1
    23    26    27    1
    24    27    28    1
    25     7     8    1
    26     8     9    1
    27    14    10    1
    28     9     3    1
    29    23    17   ar
    30    28    24    1
    31    14    15    1
@<TRIPOS>MOLECULE
*****
 28 31 0 0 0
SMALL
GASTEIGER

@<TRIPOS>ATOM
      1 O         138.6853  137.5594  162.6177 O.2     1  UNL1       -0.2734
      2 C         140.0111  138.2609  162.6332 C.2     1  UNL1        0.2401
      3 N         140.3861  139.1301  163.7967 N.am    1  UNL1       -0.2770
      4 C         141.7331  139.7849  163.7123 C.3     1  UNL1        0.0949
      5 C         142.3912  140.7010  164.7012 C.3     1  UNL1        0.0388
      6 C         141.8649  141.1885  166.0184 C.3     1  UNL1        0.0739
      7 N         140.5506  140.8804  166.6723 N.3     1  UNL1       -0.2725
      8 C         139.4379  140.0087  166.1704 C.3     1  UNL1        0.0938
      9 C         139.3647  139.2298  164.8905 C.3     1  UNL1        0.1107
     10 C         140.9618  138.0931  161.4852 C.3     1  UNL1        0.1355
     11 C         140.7911  138.6635  160.1084 C.3     1  UNL1        0.0700
     12 C         141.9740  138.2483  159.2847 C.3     1  UNL1        0.1834
     13 C         142.8757  137.4214  160.1524 C.3     1  UNL1        0.1130
     14 N         142.2502  137.3255  161.5123 N.3     1  UNL1       -0.2882
     15 H         142.8769  137.7256  162.2106 H       1  UNL1        0.1237
     16 O         142.2131  138.5987  157.8459 O.3     1  UNL1       -0.4777
     17 C         142.2739  137.5153  156.8102 C.ar    1  UNL1        0.1386
     18 C         141.0158  136.8270  156.3701 C.ar    1  UNL1        0.0392
     19 C         141.0766  135.7437  155.3345 C.ar    1  UNL1        0.0327
     20 C         142.3953  135.3484  154.7390 C.ar    1  UNL1        0.1403
     21 F         142.4561  134.2650  153.7034 F       1  UNL1       -0.2042
     22 C         143.6534  136.0367  155.1792 C.ar    1  UNL1        0.0327
     23 C         143.5926  137.1201  156.2148 C.ar    1  UNL1        0.0392
     24 C         140.3182  141.5300  168.0042 C.3     1  UNL1        0.0576
     25 C         140.6402  142.9511  168.3604 C.3     1  UNL1        0.0160
     26 C         140.2441  143.1719  169.7901 C.3     1  UNL1        0.0014
     27 C         139.6772  141.8872  170.3177 C.3     1  UNL1        0.0014
     28 C         139.7230  140.8724  169.2140 C.3     1  UNL1        0.0160
@<TRIPOS>BOND
     1     1     2    2
     2     2    10    1
     3    10    11    1
     4    11    12    1
     5    12    16    1
     6    16    17    1
     7    17    18   ar
     8    18    19   ar
     9    19    20   ar
    10    20    21    1
    11    20    22   ar
    12    22    23   ar
    13    12    13    1
    14    13    14    1
    15     2     3   am
    16     3     4    1
    17     4     5    1
    18     5     6    1
    19     6     7    1
    20     7    24    1
    21    24    25    1
    22    25    26    1
    23    26    27    1
    24    27    28    1
    25     7     8    1
    26     8     9    1
    27    14    10    1
    28     9     3    1
    29    23    17   ar
    30    28    24    1
    31    14    15    1
@<TRIPOS>MOLECULE
*****
 28 31 0 0 0
SMALL
GASTEIGER

@<TRIPOS>ATOM
      1 O         139.9793  138.8337  163.0332 O.2     1  UNL1       -0.2734
      2 C         141.1408  139.7023  163.4158 C.2     1  UNL1        0.2401
      3 N         141.4924  140.8961  162.5784 N.am    1  UNL1       -0.2770
      4 C         142.6704  141.6968  163.0489 C.3     1  UNL1        0.0949
      5 C         143.2666  142.9305  162.4384 C.3     1  UNL1        0.0388
      6 C         142.8319  143.6681  161.2068 C.3     1  UNL1        0.0739
      7 N         141.6938  143.3544  160.2815 N.3     1  UNL1       -0.2725
      8 C         140.7092  142.2254  160.3592 C.3     1  UNL1        0.0938
      9 C         140.6197  141.1314  161.3815 C.3     1  UNL1        0.1107
     10 C         141.9506  139.3772  164.6358 C.3     1  UNL1        0.1355
     11 C         141.7234  139.9205  166.0154 C.3     1  UNL1        0.0700
     12 C         142.7621  139.3308  166.9227 C.3     1  UNL1        0.1834
     13 C         143.6312  138.4230  166.1039 C.3     1  UNL1        0.1130
     14 N         143.1296  138.4516  164.6906 N.3     1  UNL1       -0.2882
     15 H         142.8474  137.5142  164.4044 H       1  UNL1        0.1237
     16 O         142.9064  139.6014  168.3911 O.3     1  UNL1       -0.4777
     17 C         141.9870  140.5740  169.0684 C.ar    1  UNL1        0.1386
     18 C         142.4274  141.9901  169.2937 C.ar    1  UNL1        0.0392
     19 C         141.5081  142.9626  169.9710 C.ar    1  UNL1        0.0327
     20 C         140.1482  142.5193  170.4229 C.ar    1  UNL1        0.1403
     21 F         139.2288  143.4919  171.1002 F       1  UNL1       -0.2042
     22 C         139.7078  141.1032  170.1975 C.ar    1  UNL1        0.0327
     23 C         140.6272  140.1306  169.5202 C.ar    1  UNL1        0.0392
     24 C         141.5169  144.2938  159.1256 C.3     1  UNL1        0.0576
     25 C         140.3446  145.2018  158.8988 C.3     1  UNL1        0.0160
     26 C         140.5843  145.9594  157.6266 C.3     1  UNL1        0.0014
     27 C         141.9048  145.5196  157.0671 C.3     1  UNL1        0.0014
     28 C         142.4811  144.4903  157.9935 C.3     1  UNL1        0.0160
@<TRIPOS>BOND
     1     1     2    2
     2     2    10    1
     3    10    11    1
     4    11    12    1
     5    12    16    1
     6    16    17    1
     7    17    18   ar
     8    18    19   ar
     9    19    20   ar
    10    20    21    1
    11    20    22   ar
    12    22    23   ar
    13    12    13    1
    14    13    14    1
    15     2     3   am
    16     3     4    1
    17     4     5    1
    18     5     6    1
    19     6     7    1
    20     7    24    1
    21    24    25    1
    22    25    26    1
    23    26    27    1
    24    27    28    1
    25     7     8    1
    26     8     9    1
    27    14    10    1
    28     9     3    1
    29    23    17   ar
    30    28    24    1
    31    14    15    1
@<TRIPOS>MOLECULE
*****
 28 31 0 0 0
SMALL
GASTEIGER

@<TRIPOS>ATOM
      1 O         142.9972  137.4350  159.9222 O.2     1  UNL1       -0.2734
      2 C         141.8647  138.0070  160.7224 C.2     1  UNL1        0.2401
      3 N         140.7210  138.6831  160.0263 N.am    1  UNL1       -0.2770
      4 C         139.6415  139.2199  160.9189 C.3     1  UNL1        0.0949
      5 C         138.3823  139.9392  160.5352 C.3     1  UNL1        0.0388
      6 C         137.8917  140.2993  159.1644 C.3     1  UNL1        0.0739
      7 N         138.5389  140.0292  157.8384 N.3     1  UNL1       -0.2725
      8 C         139.8367  139.3321  157.5559 C.3     1  UNL1        0.0938
      9 C         140.8078  138.7331  158.5297 C.3     1  UNL1        0.1107
     10 C         141.8761  137.9030  162.2187 C.3     1  UNL1        0.1355
     11 C         142.5632  138.8447  163.1628 C.3     1  UNL1        0.0700
     12 C         142.3141  138.3627  164.5613 C.3     1  UNL1        0.1834
     13 C         141.4731  137.1232  164.4815 C.3     1  UNL1        0.1130
     14 N         141.2024  136.8391  163.0338 N.3     1  UNL1       -0.2882
     15 H         140.1975  136.8544  162.8600 H       1  UNL1        0.1237
     16 O         142.8176  139.0071  165.8188 O.3     1  UNL1       -0.4777
     17 C         141.8501  139.4293  166.8845 C.ar    1  UNL1        0.1386
     18 C         142.2961  139.5055  168.3147 C.ar    1  UNL1        0.0392
     19 C         141.3287  139.9276  169.3804 C.ar    1  UNL1        0.0327
     20 C         139.9153  140.2735  169.0161 C.ar    1  UNL1        0.1403
     21 F         138.9479  140.6957  170.0818 F       1  UNL1       -0.2042
     22 C         139.4694  140.1973  167.5859 C.ar    1  UNL1        0.0327
     23 C         140.4369  139.7752  166.5202 C.ar    1  UNL1        0.0392
     24 C         137.7892  140.5211  156.6360 C.3     1  UNL1        0.0576
     25 C         136.7415  141.5945  156.6284 C.3     1  UNL1        0.0160
     26 C         136.2603  141.7628  155.2177 C.3     1  UNL1        0.0014
     27 C         137.0107  140.7934  154.3533 C.3     1  UNL1        0.0014
     28 C         137.9555  140.0259  155.2299 C.3     1  UNL1        0.0160
@<TRIPOS>BOND
     1     1     2    2
     2     2    10    1
     3    10    11    1
     4    11    12    1
     5    12    16    1
     6    16    17    1
     7    17    18   ar
     8    18    19   ar
     9    19    20   ar
    10    20    21    1
    11    20    22   ar
    12    22    23   ar
    13    12    13    1
    14    13    14    1
    15     2     3   am
    16     3     4    1
    17     4     5    1
    18     5     6    1
    19     6     7    1
    20     7    24    1
    21    24    25    1
    22    25    26    1
    23    26    27    1
    24    27    28    1
    25     7     8    1
    26     8     9    1
    27    14    10    1
    28     9     3    1
    29    23    17   ar
    30    28    24    1
    31    14    15    1
@<TRIPOS>MOLECULE
*****
 28 31 0 0 0
SMALL
GASTEIGER

@<TRIPOS>ATOM
      1 O         140.4909  141.5998  159.7777 O.2     1  UNL1       -0.2734
      2 C         140.6846  140.1362  160.0429 C.2     1  UNL1        0.2401
      3 N         140.9101  139.6513  161.4443 N.am    1  UNL1       -0.2770
      4 C         141.0922  138.1704  161.5992 C.3     1  UNL1        0.0949
      5 C         141.3328  137.3839  162.8537 C.3     1  UNL1        0.0388
      6 C         141.4507  137.8840  164.2629 C.3     1  UNL1        0.0739
      7 N         141.3572  139.2941  164.7659 N.3     1  UNL1       -0.2725
      8 C         141.1226  140.5523  163.9837 C.3     1  UNL1        0.0938
      9 C         140.9236  140.7113  162.5055 C.3     1  UNL1        0.1107
     10 C         140.6530  139.1575  158.9066 C.3     1  UNL1        0.1355
     11 C         141.8433  138.6434  158.1524 C.3     1  UNL1        0.0700
     12 C         141.3514  137.6891  157.1047 C.3     1  UNL1        0.1834
     13 C         139.8572  137.6135  157.2115 C.3     1  UNL1        0.1130
     14 N         139.4255  138.5210  158.3251 N.3     1  UNL1       -0.2882
     15 H         138.9419  137.9818  159.0433 H       1  UNL1        0.1237
     16 O         142.2042  136.9418  156.1227 O.3     1  UNL1       -0.4777
     17 C         142.3086  135.4477  156.2048 C.ar    1  UNL1        0.1386
     18 C         143.2879  134.8150  157.1486 C.ar    1  UNL1        0.0392
     19 C         143.3923  133.3210  157.2308 C.ar    1  UNL1        0.0327
     20 C         142.5175  132.4595  156.3691 C.ar    1  UNL1        0.1403
     21 F         142.6219  130.9654  156.4512 F       1  UNL1       -0.2042
     22 C         141.5382  133.0921  155.4253 C.ar    1  UNL1        0.0327
     23 C         141.4338  134.5862  155.3432 C.ar    1  UNL1        0.0392
     24 C         141.5197  139.4690  166.2467 C.3     1  UNL1        0.0576
     25 C         142.7573  139.1690  167.0394 C.3     1  UNL1        0.0160
     26 C         142.4757  139.4892  168.4775 C.3     1  UNL1        0.0014
     27 C         141.0640  139.9871  168.5736 C.3     1  UNL1        0.0014
     28 C         140.4732  139.9746  167.1949 C.3     1  UNL1        0.0160
@<TRIPOS>BOND
     1     1     2    2
     2     2    10    1
     3    10    11    1
     4    11    12    1
     5    12    16    1
     6    16    17    1
     7    17    18   ar
     8    18    19   ar
     9    19    20   ar
    10    20    21    1
    11    20    22   ar
    12    22    23   ar
    13    12    13    1
    14    13    14    1
    15     2     3   am
    16     3     4    1
    17     4     5    1
    18     5     6    1
    19     6     7    1
    20     7    24    1
    21    24    25    1
    22    25    26    1
    23    26    27    1
    24    27    28    1
    25     7     8    1
    26     8     9    1
    27    14    10    1
    28     9     3    1
    29    23    17   ar
    30    28    24    1
    31    14    15    1
