@<TRIPOS>MOLECULE
*****
 29 31 0 0 0
SMALL
GASTEIGER

@<TRIPOS>ATOM
      1 C         139.2588  140.9810  165.5785 C.3     1  UNL1        0.0610
      2 C         138.0990  141.4306  164.7403 C.3     1  UNL1        0.0375
      3 C         138.3037  142.4563  163.6651 C.3     1  UNL1        0.0950
      4 N         139.6682  143.0323  163.4280 N.pl3   1  UNL1       -0.2785
      5 C         140.8281  142.5827  164.2662 C.3     1  UNL1        0.0950
      6 C         140.6234  141.5570  165.3414 C.3     1  UNL1        0.0375
      7 C         139.8729  144.0579  162.3527 C.ar    1  UNL1        0.2163
      8 N         141.0093  144.0949  161.3743 N.ar    1  UNL1       -0.1804
      9 C         140.8158  145.2865  160.4840 C.ar    1  UNL1        0.2331
     10 N         141.7196  145.7051  159.3625 N.pl3   1  UNL1       -0.3262
     11 N         139.5598  145.9860  160.9121 N.ar    1  UNL1       -0.1354
     12 N         138.9771  145.2267  162.0671 N.ar    1  UNL1       -0.2450
     13 H         142.5254  145.1782  159.1568 H       1  UNL1        0.1452
     14 H         141.5071  146.5068  158.8320 H       1  UNL1        0.1452
     15 H         138.1516  145.4553  162.5524 H       1  UNL1        0.1919
     16 N         139.0542  139.9554  166.6537 N.3     1  UNL1       -0.2714
     17 C         139.8572  140.0244  167.9187 C.3     1  UNL1        0.1045
     18 C         139.1643  140.1877  169.2390 C.3     1  UNL1        0.1595
     19 C         140.8532  140.7109  171.1427 C.3     1  UNL1        0.1742
     20 O         139.8595  139.7852  170.5058 O.3     1  UNL1       -0.3496
     21 C         138.0463  138.8606  166.4639 C.3     1  UNL1        0.0768
     22 C         138.4319  137.6029  165.7433 C.3     1  UNL1        0.0437
     23 C         139.3410  137.6697  164.5519 C.ar    1  UNL1       -0.0207
     24 C         140.8218  137.5084  164.7285 C.ar    1  UNL1       -0.0034
     25 C         141.7308  137.5753  163.5372 C.ar    1  UNL1        0.0111
     26 C         141.1589  137.8034  162.1693 C.ar    1  UNL1        0.0577
     27 CL        142.0680  137.8702  160.9780 Cl      1  UNL1       -0.0822
     28 C         139.6781  137.9647  161.9928 C.ar    1  UNL1        0.0111
     29 C         138.7692  137.8979  163.1841 C.ar    1  UNL1       -0.0034
@<TRIPOS>BOND
     1    19    20    1
     2    20    18    1
     3    18    17    1
     4    17    16    1
     5    16    21    1
     6    21    22    1
     7    22    23    1
     8    23    24   ar
     9    24    25   ar
    10    25    26   ar
    11    26    27    1
    12    26    28   ar
    13    28    29   ar
    14    16     1    1
    15     1     2    1
    16     2     3    1
    17     3     4    1
    18     4     7    1
    19     7     8   ar
    20     8     9   ar
    21     9    10    1
    22     9    11   ar
    23    11    12   ar
    24     4     5    1
    25     5     6    1
    26    29    23   ar
    27     6     1    1
    28    12     7   ar
    29    10    13    1
    30    10    14    1
    31    12    15    1
@<TRIPOS>MOLECULE
*****
 29 31 0 0 0
SMALL
GASTEIGER

@<TRIPOS>ATOM
      1 C         138.4466  140.0454  164.5213 C.3     1  UNL1        0.0610
      2 C         139.3646  141.1461  164.9636 C.3     1  UNL1        0.0375
      3 C         139.8437  141.1978  166.3841 C.3     1  UNL1        0.0950
      4 N         139.4048  140.1488  167.3623 N.pl3   1  UNL1       -0.2785
      5 C         138.4868  139.0480  166.9200 C.3     1  UNL1        0.0950
      6 C         138.0076  138.9963  165.4995 C.3     1  UNL1        0.0375
      7 C         139.8839  140.2005  168.7827 C.ar    1  UNL1        0.2163
      8 N         141.3011  140.4085  169.2282 N.ar    1  UNL1       -0.1804
      9 C         141.3230  140.3899  170.7280 C.ar    1  UNL1        0.2331
     10 N         142.5356  140.5607  171.5942 N.pl3   1  UNL1       -0.3262
     11 N         139.9194  140.1704  171.2094 N.ar    1  UNL1       -0.1354
     12 N         139.0300  140.0534  170.0072 N.ar    1  UNL1       -0.2450
     13 H         143.4189  140.7004  171.1825 H       1  UNL1        0.1452
     14 H         142.4482  140.5331  172.5744 H       1  UNL1        0.1452
     15 H         138.0567  139.9059  170.0195 H       1  UNL1        0.1919
     16 N         137.9675  139.9937  163.1008 N.3     1  UNL1       -0.2714
     17 C         137.4108  141.2261  162.4517 C.3     1  UNL1        0.1045
     18 C         138.3218  142.1618  161.7140 C.3     1  UNL1        0.1595
     19 C         138.4599  144.5083  162.8208 C.3     1  UNL1        0.1742
     20 O         138.0233  143.6316  161.6847 O.3     1  UNL1       -0.3496
     21 C         138.0451  138.7096  162.3294 C.3     1  UNL1        0.0768
     22 C         139.3748  138.1910  161.8681 C.3     1  UNL1        0.0437
     23 C         140.5865  138.3554  162.7370 C.ar    1  UNL1       -0.0207
     24 C         141.5640  139.4588  162.4598 C.ar    1  UNL1       -0.0034
     25 C         142.7756  139.6233  163.3286 C.ar    1  UNL1        0.0111
     26 C         143.0096  138.6843  164.4747 C.ar    1  UNL1        0.0577
     27 CL        144.2213  138.8488  165.3436 Cl      1  UNL1       -0.0822
     28 C         142.0321  137.5809  164.7520 C.ar    1  UNL1        0.0111
     29 C         140.8205  137.4164  163.8831 C.ar    1  UNL1       -0.0034
@<TRIPOS>BOND
     1    19    20    1
     2    20    18    1
     3    18    17    1
     4    17    16    1
     5    16    21    1
     6    21    22    1
     7    22    23    1
     8    23    24   ar
     9    24    25   ar
    10    25    26   ar
    11    26    27    1
    12    26    28   ar
    13    28    29   ar
    14    16     1    1
    15     1     2    1
    16     2     3    1
    17     3     4    1
    18     4     7    1
    19     7     8   ar
    20     8     9   ar
    21     9    10    1
    22     9    11   ar
    23    11    12   ar
    24     4     5    1
    25     5     6    1
    26    29    23   ar
    27     6     1    1
    28    12     7   ar
    29    10    13    1
    30    10    14    1
    31    12    15    1
@<TRIPOS>MOLECULE
*****
 29 31 0 0 0
SMALL
GASTEIGER

@<TRIPOS>ATOM
      1 C         139.4868  139.9837  165.1274 C.3     1  UNL1        0.0610
      2 C         139.0422  139.4316  166.4493 C.3     1  UNL1        0.0375
      3 C         139.5256  140.0571  167.7241 C.3     1  UNL1        0.0950
      4 N         140.4535  141.2347  167.6770 N.pl3   1  UNL1       -0.2785
      5 C         140.8981  141.7869  166.3550 C.3     1  UNL1        0.0950
      6 C         140.4147  141.1614  165.0802 C.3     1  UNL1        0.0375
      7 C         140.9368  141.8602  168.9518 C.ar    1  UNL1        0.2163
      8 N         142.1951  142.6593  169.1201 N.ar    1  UNL1       -0.1804
      9 C         142.2827  143.0893  170.5545 C.ar    1  UNL1        0.2331
     10 N         143.3815  143.9088  171.1636 N.pl3   1  UNL1       -0.3262
     11 N         141.0786  142.5560  171.2727 N.ar    1  UNL1       -0.1354
     12 N         140.2469  141.7963  170.2822 N.ar    1  UNL1       -0.2450
     13 H         144.1342  144.2140  170.6074 H       1  UNL1        0.1452
     14 H         143.3499  144.1415  172.1197 H       1  UNL1        0.1452
     15 H         139.3972  141.3366  170.4719 H       1  UNL1        0.1919
     16 N         139.0034  139.3583  163.8526 N.3     1  UNL1       -0.2714
     17 C         138.4768  140.2227  162.7456 C.3     1  UNL1        0.1045
     18 C         137.3566  141.1838  163.0128 C.3     1  UNL1        0.1595
     19 C         137.8399  143.7341  163.1251 C.3     1  UNL1        0.1742
     20 O         137.3572  142.5358  162.3629 O.3     1  UNL1       -0.3496
     21 C         139.0466  137.8683  163.6847 C.3     1  UNL1        0.0768
     22 C         140.3651  137.1532  163.6690 C.3     1  UNL1        0.0437
     23 C         141.6416  137.9310  163.7947 C.ar    1  UNL1       -0.0207
     24 C         142.3218  138.0457  165.1266 C.ar    1  UNL1       -0.0034
     25 C         143.5983  138.8234  165.2523 C.ar    1  UNL1        0.0111
     26 C         144.1945  139.4863  164.0461 C.ar    1  UNL1        0.0577
     27 CL        145.4711  140.2640  164.1718 Cl      1  UNL1       -0.0822
     28 C         143.5144  139.3715  162.7141 C.ar    1  UNL1        0.0111
     29 C         142.2379  138.5938  162.5884 C.ar    1  UNL1       -0.0034
@<TRIPOS>BOND
     1    19    20    1
     2    20    18    1
     3    18    17    1
     4    17    16    1
     5    16    21    1
     6    21    22    1
     7    22    23    1
     8    23    24   ar
     9    24    25   ar
    10    25    26   ar
    11    26    27    1
    12    26    28   ar
    13    28    29   ar
    14    16     1    1
    15     1     2    1
    16     2     3    1
    17     3     4    1
    18     4     7    1
    19     7     8   ar
    20     8     9   ar
    21     9    10    1
    22     9    11   ar
    23    11    12   ar
    24     4     5    1
    25     5     6    1
    26    29    23   ar
    27     6     1    1
    28    12     7   ar
    29    10    13    1
    30    10    14    1
    31    12    15    1
@<TRIPOS>MOLECULE
*****
 29 31 0 0 0
SMALL
GASTEIGER

@<TRIPOS>ATOM
      1 C         142.1443  142.3455  166.6338 C.3     1  UNL1        0.0610
      2 C         143.1043  142.7008  165.5375 C.3     1  UNL1        0.0375
      3 C         142.6222  143.4541  164.3333 C.3     1  UNL1        0.0950
      4 N         141.1801  143.8521  164.2254 N.pl3   1  UNL1       -0.2785
      5 C         140.2199  143.4968  165.3218 C.3     1  UNL1        0.0950
      6 C         140.7020  142.7435  166.5260 C.3     1  UNL1        0.0375
      7 C         140.6980  144.6054  163.0212 C.ar    1  UNL1        0.2163
      8 N         141.1316  144.3732  161.6040 N.ar    1  UNL1       -0.1804
      9 C         140.3992  145.3474  160.7297 C.ar    1  UNL1        0.2331
     10 N         140.5301  145.4664  159.2402 N.pl3   1  UNL1       -0.3262
     11 N         139.5129  146.1817  161.6064 N.ar    1  UNL1       -0.1354
     12 N         139.6976  145.7230  163.0225 N.ar    1  UNL1       -0.2450
     13 H         141.1417  144.8702  158.7506 H       1  UNL1        0.1452
     14 H         140.0045  146.1408  158.7521 H       1  UNL1        0.1452
     15 H         139.2421  146.0910  163.8140 H       1  UNL1        0.1919
     16 N         142.6264  141.5923  167.8381 N.3     1  UNL1       -0.2714
     17 C         143.3285  142.3196  168.9461 C.3     1  UNL1        0.1045
     18 C         142.6216  142.5694  170.2453 C.3     1  UNL1        0.1595
     19 C         140.4495  143.9663  169.9608 C.3     1  UNL1        0.1742
     20 O         141.8616  143.8460  170.4522 O.3     1  UNL1       -0.3496
     21 C         142.4063  140.1116  167.9341 C.3     1  UNL1        0.0768
     22 C         142.7818  139.2215  166.7866 C.3     1  UNL1        0.0437
     23 C         141.7430  138.8096  165.7859 C.ar    1  UNL1       -0.0207
     24 C         140.3084  139.1963  165.9916 C.ar    1  UNL1       -0.0034
     25 C         139.2698  138.7844  164.9909 C.ar    1  UNL1        0.0111
     26 C         139.6658  137.9859  163.7844 C.ar    1  UNL1        0.0577
     27 CL        138.6270  137.5740  162.7836 Cl      1  UNL1       -0.0822
     28 C         141.1004  137.5993  163.5786 C.ar    1  UNL1        0.0111
     29 C         142.1390  138.0111  164.5794 C.ar    1  UNL1       -0.0034
@<TRIPOS>BOND
     1    19    20    1
     2    20    18    1
     3    18    17    1
     4    17    16    1
     5    16    21    1
     6    21    22    1
     7    22    23    1
     8    23    24   ar
     9    24    25   ar
    10    25    26   ar
    11    26    27    1
    12    26    28   ar
    13    28    29   ar
    14    16     1    1
    15     1     2    1
    16     2     3    1
    17     3     4    1
    18     4     7    1
    19     7     8   ar
    20     8     9   ar
    21     9    10    1
    22     9    11   ar
    23    11    12   ar
    24     4     5    1
    25     5     6    1
    26    29    23   ar
    27     6     1    1
    28    12     7   ar
    29    10    13    1
    30    10    14    1
    31    12    15    1
@<TRIPOS>MOLECULE
*****
 29 31 0 0 0
SMALL
GASTEIGER

@<TRIPOS>ATOM
      1 C         140.5016  142.9018  166.2108 C.3     1  UNL1        0.0610
      2 C         139.4175  143.8570  165.8080 C.3     1  UNL1        0.0375
      3 C         139.4186  144.4561  164.4329 C.3     1  UNL1        0.0950
      4 N         140.5038  144.1001  163.4605 N.pl3   1  UNL1       -0.2785
      5 C         141.5880  143.1448  163.8633 C.3     1  UNL1        0.0950
      6 C         141.5869  142.5457  165.2384 C.3     1  UNL1        0.0375
      7 C         140.5049  144.6992  162.0854 C.ar    1  UNL1        0.2163
      8 N         141.5974  144.5654  161.0662 N.ar    1  UNL1       -0.1804
      9 C         141.1814  145.3209  159.8389 C.ar    1  UNL1        0.2331
     10 N         141.9755  145.4525  158.5732 N.pl3   1  UNL1       -0.3262
     11 N         139.8319  145.9217  160.0996 N.ar    1  UNL1       -0.1354
     12 N         139.4138  145.5374  161.4880 N.ar    1  UNL1       -0.2450
     13 H         142.8563  145.0193  158.4974 H       1  UNL1        0.1452
     14 H         141.6159  145.9721  157.8183 H       1  UNL1        0.1452
     15 H         138.5712  145.7909  161.9296 H       1  UNL1        0.1919
     16 N         140.5005  142.3026  167.5859 N.3     1  UNL1       -0.2714
     17 C         140.4657  143.1935  168.7922 C.3     1  UNL1        0.1045
     18 C         140.0427  142.6406  170.1209 C.3     1  UNL1        0.1595
     19 C         141.7916  141.0543  171.2048 C.3     1  UNL1        0.1742
     20 O         141.0686  142.3683  171.1809 O.3     1  UNL1       -0.3496
     21 C         140.5342  140.8125  167.7548 C.3     1  UNL1        0.0768
     22 C         139.3198  139.9934  167.4317 C.3     1  UNL1        0.0437
     23 C         139.0705  139.5456  166.0220 C.ar    1  UNL1       -0.0207
     24 C         139.6127  138.2307  165.5457 C.ar    1  UNL1       -0.0034
     25 C         139.3634  137.7829  164.1360 C.ar    1  UNL1        0.0111
     26 C         138.5717  138.6501  163.2026 C.ar    1  UNL1        0.0577
     27 CL        138.3224  138.2023  161.7928 Cl      1  UNL1       -0.0822
     28 C         138.0294  139.9650  163.6788 C.ar    1  UNL1        0.0111
     29 C         138.2788  140.4128  165.0885 C.ar    1  UNL1       -0.0034
@<TRIPOS>BOND
     1    19    20    1
     2    20    18    1
     3    18    17    1
     4    17    16    1
     5    16    21    1
     6    21    22    1
     7    22    23    1
     8    23    24   ar
     9    24    25   ar
    10    25    26   ar
    11    26    27    1
    12    26    28   ar
    13    28    29   ar
    14    16     1    1
    15     1     2    1
    16     2     3    1
    17     3     4    1
    18     4     7    1
    19     7     8   ar
    20     8     9   ar
    21     9    10    1
    22     9    11   ar
    23    11    12   ar
    24     4     5    1
    25     5     6    1
    26    29    23   ar
    27     6     1    1
    28    12     7   ar
    29    10    13    1
    30    10    14    1
    31    12    15    1
@<TRIPOS>MOLECULE
*****
 29 31 0 0 0
SMALL
GASTEIGER

@<TRIPOS>ATOM
      1 C         142.9903  142.7898  165.0343 C.3     1  UNL1        0.0610
      2 C         141.5035  142.7003  164.8568 C.3     1  UNL1        0.0375
      3 C         140.6274  142.3641  166.0271 C.3     1  UNL1        0.0950
      4 N         141.2381  142.1174  167.3747 N.pl3   1  UNL1       -0.2785
      5 C         142.7249  142.2068  167.5522 C.3     1  UNL1        0.0950
      6 C         143.6010  142.5431  166.3820 C.3     1  UNL1        0.0375
      7 C         140.3620  141.7812  168.5449 C.ar    1  UNL1        0.2163
      8 N         139.5513  140.5297  168.7086 N.ar    1  UNL1       -0.1804
      9 C         138.8310  140.6125  170.0218 C.ar    1  UNL1        0.2331
     10 N         137.9074  139.5749  170.5876 N.pl3   1  UNL1       -0.3262
     11 N         139.1965  141.9150  170.6697 N.ar    1  UNL1       -0.1354
     12 N         140.1427  142.6373  169.7569 N.ar    1  UNL1       -0.2450
     13 H         137.7289  138.7477  170.0844 H       1  UNL1        0.1452
     14 H         137.4796  139.7210  171.4622 H       1  UNL1        0.1452
     15 H         140.5486  143.5185  169.9240 H       1  UNL1        0.1919
     16 N         143.8664  143.1260  163.8641 N.3     1  UNL1       -0.2714
     17 C         143.4081  144.1297  162.8479 C.3     1  UNL1        0.1045
     18 C         142.8887  143.6677  161.5188 C.3     1  UNL1        0.1595
     19 C         140.8642  144.8141  160.3623 C.3     1  UNL1        0.1742
     20 O         142.3464  144.6645  160.5378 O.3     1  UNL1       -0.3496
     21 C         145.2009  142.4585  163.7100 C.3     1  UNL1        0.0768
     22 C         145.2788  141.0403  163.2280 C.3     1  UNL1        0.0437
     23 C         144.1939  140.0669  163.5824 C.ar    1  UNL1       -0.0207
     24 C         143.0643  139.8221  162.6264 C.ar    1  UNL1       -0.0034
     25 C         141.9794  138.8488  162.9809 C.ar    1  UNL1        0.0111
     26 C         142.0242  138.1203  164.2913 C.ar    1  UNL1        0.0577
     27 CL        140.9392  137.1469  164.6457 Cl      1  UNL1       -0.0822
     28 C         143.1538  138.3651  165.2473 C.ar    1  UNL1        0.0111
     29 C         144.2386  139.3384  164.8928 C.ar    1  UNL1       -0.0034
@<TRIPOS>BOND
     1    19    20    1
     2    20    18    1
     3    18    17    1
     4    17    16    1
     5    16    21    1
     6    21    22    1
     7    22    23    1
     8    23    24   ar
     9    24    25   ar
    10    25    26   ar
    11    26    27    1
    12    26    28   ar
    13    28    29   ar
    14    16     1    1
    15     1     2    1
    16     2     3    1
    17     3     4    1
    18     4     7    1
    19     7     8   ar
    20     8     9   ar
    21     9    10    1
    22     9    11   ar
    23    11    12   ar
    24     4     5    1
    25     5     6    1
    26    29    23   ar
    27     6     1    1
    28    12     7   ar
    29    10    13    1
    30    10    14    1
    31    12    15    1
@<TRIPOS>MOLECULE
*****
 29 31 0 0 0
SMALL
GASTEIGER

@<TRIPOS>ATOM
      1 C         142.7824  139.4279  164.3369 C.3     1  UNL1        0.0610
      2 C         142.8079  138.5397  165.5453 C.3     1  UNL1        0.0375
      3 C         142.7684  139.1409  166.9190 C.3     1  UNL1        0.0950
      4 N         142.7034  140.6303  167.0842 N.pl3   1  UNL1       -0.2785
      5 C         142.6779  141.5186  165.8758 C.3     1  UNL1        0.0950
      6 C         142.7174  140.9174  164.5021 C.3     1  UNL1        0.0375
      7 C         142.6639  141.2315  168.4579 C.ar    1  UNL1        0.2163
      8 N         143.2677  142.5433  168.8639 N.ar    1  UNL1       -0.1804
      9 C         142.9906  142.7490  170.3238 C.ar    1  UNL1        0.2331
     10 N         143.4142  143.9317  171.1434 N.pl3   1  UNL1       -0.3262
     11 N         142.2156  141.5644  170.8199 N.ar    1  UNL1       -0.1354
     12 N         142.0137  140.6266  169.6668 N.ar    1  UNL1       -0.2450
     13 H         143.9228  144.6636  170.7253 H       1  UNL1        0.1452
     14 H         143.1836  143.9759  172.0995 H       1  UNL1        0.1452
     15 H         141.5379  139.7652  169.6979 H       1  UNL1        0.1919
     16 N         142.8219  138.8267  162.9632 N.3     1  UNL1       -0.2714
     17 C         144.0770  138.9058  162.1457 C.3     1  UNL1        0.1045
     18 C         144.2999  140.0682  161.2244 C.3     1  UNL1        0.1595
     19 C         143.1942  138.7420  159.2831 C.3     1  UNL1        0.1742
     20 O         143.8495  139.9901  159.7957 O.3     1  UNL1       -0.3496
     21 C         141.6061  138.1465  162.4070 C.3     1  UNL1        0.0768
     22 C         140.2605  138.7981  162.5285 C.3     1  UNL1        0.0437
     23 C         139.4958  138.7055  163.8156 C.ar    1  UNL1       -0.0207
     24 C         139.2357  137.3661  164.4387 C.ar    1  UNL1       -0.0034
     25 C         138.4710  137.2735  165.7258 C.ar    1  UNL1        0.0111
     26 C         137.9663  138.5203  166.3897 C.ar    1  UNL1        0.0577
     27 CL        137.2015  138.4277  167.6768 Cl      1  UNL1       -0.0822
     28 C         138.2263  139.8597  165.7665 C.ar    1  UNL1        0.0111
     29 C         138.9911  139.9523  164.4795 C.ar    1  UNL1       -0.0034
@<TRIPOS>BOND
     1    19    20    1
     2    20    18    1
     3    18    17    1
     4    17    16    1
     5    16    21    1
     6    21    22    1
     7    22    23    1
     8    23    24   ar
     9    24    25   ar
    10    25    26   ar
    11    26    27    1
    12    26    28   ar
    13    28    29   ar
    14    16     1    1
    15     1     2    1
    16     2     3    1
    17     3     4    1
    18     4     7    1
    19     7     8   ar
    20     8     9   ar
    21     9    10    1
    22     9    11   ar
    23    11    12   ar
    24     4     5    1
    25     5     6    1
    26    29    23   ar
    27     6     1    1
    28    12     7   ar
    29    10    13    1
    30    10    14    1
    31    12    15    1
@<TRIPOS>MOLECULE
*****
 29 31 0 0 0
SMALL
GASTEIGER

@<TRIPOS>ATOM
      1 C         141.1488  142.0292  166.2164 C.3     1  UNL1        0.0610
      2 C         142.3395  142.6627  165.5600 C.3     1  UNL1        0.0375
      3 C         142.1803  143.3863  164.2557 C.3     1  UNL1        0.0950
      4 N         140.8305  143.4764  163.6079 N.pl3   1  UNL1       -0.2785
      5 C         139.6397  142.8429  164.2643 C.3     1  UNL1        0.0950
      6 C         139.7989  142.1193  165.5685 C.3     1  UNL1        0.0375
      7 C         140.6713  144.2000  162.3036 C.ar    1  UNL1        0.2163
      8 N         141.7680  144.5124  161.3291 N.ar    1  UNL1       -0.1804
      9 C         141.1619  145.2438  160.1681 C.ar    1  UNL1        0.2331
     10 N         141.8979  145.7471  158.9618 N.pl3   1  UNL1       -0.3262
     11 N         139.6907  145.3834  160.4251 N.ar    1  UNL1       -0.1354
     12 N         139.3875  144.7383  161.7449 N.ar    1  UNL1       -0.2450
     13 H         142.8692  145.6063  158.8836 H       1  UNL1        0.1452
     14 H         141.4098  146.2182  158.2484 H       1  UNL1        0.1452
     15 H         138.5014  144.6787  162.1699 H       1  UNL1        0.1919
     16 N         141.3080  141.3056  167.5206 N.3     1  UNL1       -0.2714
     17 C         140.1947  141.3177  168.5257 C.3     1  UNL1        0.1045
     18 C         139.3128  140.1145  168.6825 C.3     1  UNL1        0.1595
     19 C         137.8300  138.7798  167.0181 C.3     1  UNL1        0.1742
     20 O         139.1846  139.1272  167.5605 O.3     1  UNL1       -0.3496
     21 C         142.5806  140.5700  167.8197 C.3     1  UNL1        0.0768
     22 C         142.7706  139.1675  167.3229 C.3     1  UNL1        0.0437
     23 C         142.8405  138.8969  165.8491 C.ar    1  UNL1       -0.0207
     24 C         144.0247  139.3645  165.0560 C.ar    1  UNL1       -0.0034
     25 C         144.0945  139.0939  163.5823 C.ar    1  UNL1        0.0111
     26 C         142.9802  138.3557  162.9017 C.ar    1  UNL1        0.0577
     27 CL        143.0500  138.0851  161.4279 Cl      1  UNL1       -0.0822
     28 C         141.7960  137.8881  163.6947 C.ar    1  UNL1        0.0111
     29 C         141.7261  138.1587  165.1684 C.ar    1  UNL1       -0.0034
@<TRIPOS>BOND
     1    19    20    1
     2    20    18    1
     3    18    17    1
     4    17    16    1
     5    16    21    1
     6    21    22    1
     7    22    23    1
     8    23    24   ar
     9    24    25   ar
    10    25    26   ar
    11    26    27    1
    12    26    28   ar
    13    28    29   ar
    14    16     1    1
    15     1     2    1
    16     2     3    1
    17     3     4    1
    18     4     7    1
    19     7     8   ar
    20     8     9   ar
    21     9    10    1
    22     9    11   ar
    23    11    12   ar
    24     4     5    1
    25     5     6    1
    26    29    23   ar
    27     6     1    1
    28    12     7   ar
    29    10    13    1
    30    10    14    1
    31    12    15    1
@<TRIPOS>MOLECULE
*****
 29 31 0 0 0
SMALL
GASTEIGER

@<TRIPOS>ATOM
      1 C         139.4335  140.4151  164.5303 C.3     1  UNL1        0.0610
      2 C         140.8881  140.7141  164.3195 C.3     1  UNL1        0.0375
      3 C         141.7919  140.9118  165.5002 C.3     1  UNL1        0.0950
      4 N         141.2411  140.8104  166.8917 N.pl3   1  UNL1       -0.2785
      5 C         139.7864  140.5113  167.1025 C.3     1  UNL1        0.0950
      6 C         138.8825  140.3137  165.9218 C.3     1  UNL1        0.0375
      7 C         142.1449  141.0080  168.0724 C.ar    1  UNL1        0.2163
      8 N         142.9384  142.2438  168.3783 N.ar    1  UNL1       -0.1804
      9 C         143.6978  142.0041  169.6495 C.ar    1  UNL1        0.2331
     10 N         144.6195  142.9774  170.3227 N.pl3   1  UNL1       -0.3262
     11 N         143.3737  140.6203  170.1292 N.ar    1  UNL1       -0.1354
     12 N         142.4140  140.0047  169.1545 N.ar    1  UNL1       -0.2450
     13 H         144.7690  143.8671  169.9285 H       1  UNL1        0.1452
     14 H         145.0749  142.7265  171.1587 H       1  UNL1        0.1452
     15 H         142.0284  139.1009  169.2145 H       1  UNL1        0.1919
     16 N         138.5296  140.2175  163.3496 N.3     1  UNL1       -0.2714
     17 C         138.7181  139.0312  162.4511 C.3     1  UNL1        0.1045
     18 C         139.2336  137.7394  163.0127 C.3     1  UNL1        0.1595
     19 C         141.7605  137.8338  162.4160 C.3     1  UNL1        0.1742
     20 O         140.4534  137.0979  162.4206 O.3     1  UNL1       -0.3496
     21 C         137.4374  141.2061  163.0674 C.3     1  UNL1        0.0768
     22 C         137.7566  142.5004  162.3798 C.3     1  UNL1        0.0437
     23 C         139.0101  143.2464  162.7297 C.ar    1  UNL1       -0.0207
     24 C         139.1104  143.9720  164.0386 C.ar    1  UNL1       -0.0034
     25 C         140.3638  144.7180  164.3884 C.ar    1  UNL1        0.0111
     26 C         141.5169  144.7382  163.4293 C.ar    1  UNL1        0.0577
     27 CL        142.7704  145.4842  163.7792 Cl      1  UNL1       -0.0822
     28 C         141.4166  144.0126  162.1204 C.ar    1  UNL1        0.0111
     29 C         140.1632  143.2667  161.7706 C.ar    1  UNL1       -0.0034
@<TRIPOS>BOND
     1    19    20    1
     2    20    18    1
     3    18    17    1
     4    17    16    1
     5    16    21    1
     6    21    22    1
     7    22    23    1
     8    23    24   ar
     9    24    25   ar
    10    25    26   ar
    11    26    27    1
    12    26    28   ar
    13    28    29   ar
    14    16     1    1
    15     1     2    1
    16     2     3    1
    17     3     4    1
    18     4     7    1
    19     7     8   ar
    20     8     9   ar
    21     9    10    1
    22     9    11   ar
    23    11    12   ar
    24     4     5    1
    25     5     6    1
    26    29    23   ar
    27     6     1    1
    28    12     7   ar
    29    10    13    1
    30    10    14    1
    31    12    15    1
