@<TRIPOS>MOLECULE
*****
 42 46 0 0 0
SMALL
GASTEIGER

@<TRIPOS>ATOM
      1 C         141.5305  140.7261  163.4208 C.3     1  UNL1        0.0807
      2 C         141.7395  140.6071  164.9015 C.ar    1  UNL1        0.0375
      3 C         140.9166  141.4344  165.8440 C.ar    1  UNL1        0.0023
      4 C         141.1256  141.3154  167.3246 C.ar    1  UNL1        0.0183
      5 C         140.3028  142.1427  168.2671 C.ar    1  UNL1        0.0118
      6 C         140.5118  142.0237  169.7477 C.ar    1  UNL1        0.0685
      7 C         141.5437  141.0772  170.2857 C.ar    1  UNL1        0.0118
      8 C         142.3666  140.2499  169.3432 C.ar    1  UNL1        0.0199
      9 C         142.1575  140.3690  167.8627 C.ar    1  UNL1        0.0844
     10 N         142.9804  139.5416  166.9201 N.ar    1  UNL1       -0.2119
     11 C         142.7714  139.6607  165.4395 C.ar    1  UNL1        0.2211
     12 C         139.6890  142.8510  170.6903 C.1     1  UNL1        0.1004
     13 N         138.8661  143.6783  171.6328 N.1     1  UNL1       -0.1908
     14 O         143.5942  138.8333  164.4969 O.3     1  UNL1       -0.4563
     15 C         145.0208  139.2062  164.2215 C.3     1  UNL1        0.2542
     16 C         142.5380  141.4491  162.5769 C.ar    1  UNL1        0.0215
     17 C         143.1680  140.7581  161.4042 C.ar    1  UNL1       -0.0007
     18 C         144.1756  141.4811  160.5602 C.ar    1  UNL1        0.0030
     19 C         144.5530  142.8951  160.8890 C.ar    1  UNL1        0.0402
     20 C         143.9228  143.5861  162.0618 C.ar    1  UNL1        0.1761
     21 C         142.9153  142.8631  162.9058 C.ar    1  UNL1        0.1728
     22 O         142.4652  143.7956  163.9911 O.3     1  UNL1       -0.4349
     23 C         143.1946  145.0948  163.8179 C.3     1  UNL1        0.4294
     24 O         144.0954  144.9654  162.6255 O.3     1  UNL1       -0.4346
     25 C         140.3140  140.1222  162.7842 C.3     1  UNL1        0.1162
     26 O         140.8573  138.7492  163.0483 O.3     1  UNL1       -0.3820
     27 H         140.2328  138.0851  162.7171 H       1  UNL1        0.2107
     28 C         139.3697  143.4820  160.8948 C.ar    1  UNL1        0.2272
     29 C         139.9131  142.1091  161.1589 C.ar    1  UNL1        0.0559
     30 C         139.7706  141.4951  162.5200 C.ar    1  UNL1        0.0117
     31 C         139.0847  142.2541  163.6170 C.ar    1  UNL1        0.0559
     32 C         138.5413  143.6271  163.3529 C.ar    1  UNL1        0.2272
     33 N         138.6838  144.2410  161.9918 N.ar    1  UNL1       -0.1767
     34 C         140.3036  145.3582  159.3592 C.3     1  UNL1        0.2542
     35 O         139.5122  144.0959  159.5335 O.3     1  UNL1       -0.4561
     36 O         137.8554  144.3861  164.4500 O.3     1  UNL1       -0.4561
     37 C         138.6545  144.9380  165.5932 C.3     1  UNL1        0.2542
     38 C         139.0974  139.5182  162.1475 C.3     1  UNL1        0.0491
     39 C         139.2475  138.4313  161.1248 C.3     1  UNL1        0.0750
     40 N         139.9112  138.7235  159.8117 N.3     1  UNL1       -0.2702
     41 C         139.1486  139.4214  158.7248 C.3     1  UNL1        0.0897
     42 C         141.3374  138.3178  159.5855 C.3     1  UNL1        0.0897
@<TRIPOS>BOND
     1    34    35    1
     2    35    28    1
     3    28    29   ar
     4    29    30   ar
     5    30    25    1
     6    25    26    1
     7    25    38    1
     8    38    39    1
     9    39    40    1
    10    40    41    1
    11    40    42    1
    12    25     1    1
    13     1     2    1
    14     2     3   ar
    15     3     4   ar
    16     4     5   ar
    17     5     6   ar
    18     6    12    1
    19    12    13    3
    20     6     7   ar
    21     7     8   ar
    22     8     9   ar
    23     9    10   ar
    24    10    11   ar
    25    11    14    1
    26    14    15    1
    27     1    16    1
    28    16    17   ar
    29    17    18   ar
    30    18    19   ar
    31    19    20   ar
    32    20    21   ar
    33    21    22    1
    34    22    23    1
    35    23    24    1
    36    30    31   ar
    37    31    32   ar
    38    32    36    1
    39    36    37    1
    40    32    33   ar
    41    33    28   ar
    42    11     2   ar
    43    21    16   ar
    44     9     4   ar
    45    24    20    1
    46    26    27    1
@<TRIPOS>MOLECULE
*****
 42 46 0 0 0
SMALL
GASTEIGER

@<TRIPOS>ATOM
      1 C         141.5263  140.7284  163.3212 C.3     1  UNL1        0.0807
      2 C         141.7374  140.5960  164.8004 C.ar    1  UNL1        0.0375
      3 C         140.9275  141.4269  165.7509 C.ar    1  UNL1        0.0023
      4 C         141.1386  141.2945  167.2301 C.ar    1  UNL1        0.0183
      5 C         140.3287  142.1254  168.1807 C.ar    1  UNL1        0.0118
      6 C         140.5399  141.9930  169.6598 C.ar    1  UNL1        0.0685
      7 C         141.5609  141.0297  170.1884 C.ar    1  UNL1        0.0118
      8 C         142.3708  140.1987  169.2378 C.ar    1  UNL1        0.0199
      9 C         142.1596  140.3312  167.7587 C.ar    1  UNL1        0.0844
     10 N         142.9696  139.5002  166.8081 N.ar    1  UNL1       -0.2119
     11 C         142.7584  139.6326  165.3290 C.ar    1  UNL1        0.2211
     12 C         139.7299  142.8240  170.6104 C.1     1  UNL1        0.1004
     13 N         138.9201  143.6549  171.5610 N.1     1  UNL1       -0.1908
     14 O         143.5683  138.8017  164.3783 O.3     1  UNL1       -0.4563
     15 C         144.9882  139.1786  164.0752 C.3     1  UNL1        0.2542
     16 C         142.5369  141.4514  162.4811 C.ar    1  UNL1        0.0215
     17 C         143.1369  140.7767  161.2833 C.ar    1  UNL1       -0.0007
     18 C         144.1476  141.4997  160.4431 C.ar    1  UNL1        0.0030
     19 C         144.5583  142.8974  160.8008 C.ar    1  UNL1        0.0402
     20 C         143.9582  143.5720  161.9987 C.ar    1  UNL1        0.1761
     21 C         142.9475  142.8490  162.8388 C.ar    1  UNL1        0.1728
     22 O         142.5312  143.7635  163.9525 O.3     1  UNL1       -0.4349
     23 C         143.2846  145.0517  163.8007 C.3     1  UNL1        0.4294
     24 O         144.1666  144.9333  162.5931 O.3     1  UNL1       -0.4346
     25 C         140.3044  140.1378  162.6822 C.3     1  UNL1        0.1162
     26 O         140.8375  138.7591  162.9372 O.3     1  UNL1       -0.3820
     27 H         140.2075  138.1018  162.6026 H       1  UNL1        0.2107
     28 C         138.5584  143.6522  163.2742 C.ar    1  UNL1        0.2272
     29 C         139.0915  142.2735  163.5292 C.ar    1  UNL1        0.0559
     30 C         139.7714  141.5165  162.4271 C.ar    1  UNL1        0.0117
     31 C         139.9182  142.1381  161.0700 C.ar    1  UNL1        0.0559
     32 C         139.3851  143.5168  160.8149 C.ar    1  UNL1        0.2272
     33 N         138.7052  144.2738  161.9170 N.ar    1  UNL1       -0.1767
     34 C         138.6681  144.8767  165.5630 C.3     1  UNL1        0.2542
     35 O         137.8785  144.4092  164.3764 O.3     1  UNL1       -0.4561
     36 O         139.5320  144.1385  159.4577 O.3     1  UNL1       -0.4561
     37 C         140.4146  145.3372  159.2733 C.3     1  UNL1        0.2542
     38 C         139.0826  139.5471  162.0431 C.3     1  UNL1        0.0491
     39 C         139.2237  138.4725  161.0062 C.3     1  UNL1        0.0750
     40 N         139.8734  138.7811  159.6899 N.3     1  UNL1       -0.2702
     41 C         139.1112  139.5244  158.6333 C.3     1  UNL1        0.0897
     42 C         141.2852  138.3463  159.4302 C.3     1  UNL1        0.0897
@<TRIPOS>BOND
     1    34    35    1
     2    35    28    1
     3    28    29   ar
     4    29    30   ar
     5    30    25    1
     6    25    26    1
     7    25    38    1
     8    38    39    1
     9    39    40    1
    10    40    41    1
    11    40    42    1
    12    25     1    1
    13     1     2    1
    14     2     3   ar
    15     3     4   ar
    16     4     5   ar
    17     5     6   ar
    18     6    12    1
    19    12    13    3
    20     6     7   ar
    21     7     8   ar
    22     8     9   ar
    23     9    10   ar
    24    10    11   ar
    25    11    14    1
    26    14    15    1
    27     1    16    1
    28    16    17   ar
    29    17    18   ar
    30    18    19   ar
    31    19    20   ar
    32    20    21   ar
    33    21    22    1
    34    22    23    1
    35    23    24    1
    36    30    31   ar
    37    31    32   ar
    38    32    36    1
    39    36    37    1
    40    32    33   ar
    41    33    28   ar
    42    11     2   ar
    43    21    16   ar
    44     9     4   ar
    45    24    20    1
    46    26    27    1
@<TRIPOS>MOLECULE
*****
 42 46 0 0 0
SMALL
GASTEIGER

@<TRIPOS>ATOM
      1 C         141.2893  140.9237  162.5624 C.3     1  UNL1        0.0807
      2 C         141.3201  140.7361  164.0504 C.ar    1  UNL1        0.0375
      3 C         140.9646  141.8764  164.9576 C.ar    1  UNL1        0.0023
      4 C         140.9954  141.6888  166.4456 C.ar    1  UNL1        0.0183
      5 C         140.6399  142.8291  167.3529 C.ar    1  UNL1        0.0118
      6 C         140.6708  142.6414  168.8407 C.ar    1  UNL1        0.0685
      7 C         141.0571  141.3134  169.4213 C.ar    1  UNL1        0.0118
      8 C         141.4126  140.1730  168.5140 C.ar    1  UNL1        0.0199
      9 C         141.3818  140.3607  167.0262 C.ar    1  UNL1        0.0844
     10 N         141.7373  139.2204  166.1188 N.ar    1  UNL1       -0.2119
     11 C         141.7064  139.4080  164.6310 C.ar    1  UNL1        0.2211
     12 C         140.3153  143.7818  169.7481 C.1     1  UNL1        0.1004
     13 N         139.9598  144.9221  170.6554 N.1     1  UNL1       -0.1908
     14 O         142.0619  138.2677  163.7236 O.3     1  UNL1       -0.4563
     15 C         141.0401  137.2173  163.4035 C.3     1  UNL1        0.2542
     16 C         140.1203  140.4225  161.7673 C.ar    1  UNL1        0.0215
     17 C         138.7221  140.7374  162.2098 C.ar    1  UNL1       -0.0007
     18 C         137.5530  140.2362  161.4147 C.ar    1  UNL1        0.0030
     19 C         137.7822  139.4202  160.1772 C.ar    1  UNL1        0.0402
     20 C         139.1805  139.1053  159.7347 C.ar    1  UNL1        0.1761
     21 C         140.3495  139.6065  160.5298 C.ar    1  UNL1        0.1728
     22 O         141.6043  139.1403  159.8530 O.3     1  UNL1       -0.4349
     23 C         141.2108  138.3511  158.6397 C.3     1  UNL1        0.4294
     24 O         139.7128  138.3294  158.5666 O.3     1  UNL1       -0.4346
     25 C         142.4275  141.6126  161.8696 C.3     1  UNL1        0.1162
     26 O         143.3227  140.4513  162.1858 O.3     1  UNL1       -0.3820
     27 H         144.2097  140.6210  161.8316 H       1  UNL1        0.2107
     28 C         140.0245  144.7344  162.3490 C.ar    1  UNL1        0.2272
     29 C         140.9197  143.5731  162.6652 C.ar    1  UNL1        0.0559
     30 C         141.5322  142.7739  161.5535 C.ar    1  UNL1        0.0117
     31 C         141.2495  143.1359  160.1256 C.ar    1  UNL1        0.0559
     32 C         140.3543  144.2972  159.8094 C.ar    1  UNL1        0.2272
     33 N         139.7418  145.0964  160.9211 N.ar    1  UNL1       -0.1767
     34 C         138.8193  144.8349  164.6485 C.3     1  UNL1        0.2542
     35 O         139.4119  145.5336  163.4609 O.3     1  UNL1       -0.4561
     36 O         140.0716  144.6592  158.3814 O.3     1  UNL1       -0.4561
     37 C         140.8375  145.7683  157.7231 C.3     1  UNL1        0.2542
     38 C         143.5657  142.3014  161.1769 C.3     1  UNL1        0.0491
     39 C         144.5105  143.1626  161.9615 C.3     1  UNL1        0.0750
     40 N         144.8722  142.7899  163.3687 N.3     1  UNL1       -0.2702
     41 C         144.2491  143.5198  164.5216 C.3     1  UNL1        0.0897
     42 C         145.8569  141.6874  163.6231 C.3     1  UNL1        0.0897
@<TRIPOS>BOND
     1    34    35    1
     2    35    28    1
     3    28    29   ar
     4    29    30   ar
     5    30    25    1
     6    25    26    1
     7    25    38    1
     8    38    39    1
     9    39    40    1
    10    40    41    1
    11    40    42    1
    12    25     1    1
    13     1     2    1
    14     2     3   ar
    15     3     4   ar
    16     4     5   ar
    17     5     6   ar
    18     6    12    1
    19    12    13    3
    20     6     7   ar
    21     7     8   ar
    22     8     9   ar
    23     9    10   ar
    24    10    11   ar
    25    11    14    1
    26    14    15    1
    27     1    16    1
    28    16    17   ar
    29    17    18   ar
    30    18    19   ar
    31    19    20   ar
    32    20    21   ar
    33    21    22    1
    34    22    23    1
    35    23    24    1
    36    30    31   ar
    37    31    32   ar
    38    32    36    1
    39    36    37    1
    40    32    33   ar
    41    33    28   ar
    42    11     2   ar
    43    21    16   ar
    44     9     4   ar
    45    24    20    1
    46    26    27    1
@<TRIPOS>MOLECULE
*****
 42 46 0 0 0
SMALL
GASTEIGER

@<TRIPOS>ATOM
      1 C         139.7240  140.6597  164.4176 C.3     1  UNL1        0.0807
      2 C         140.1574  140.5906  165.8520 C.ar    1  UNL1        0.0375
      3 C         141.3359  141.3925  166.3189 C.ar    1  UNL1        0.0023
      4 C         141.7693  141.3234  167.7533 C.ar    1  UNL1        0.0183
      5 C         142.9479  142.1252  168.2202 C.ar    1  UNL1        0.0118
      6 C         143.3812  142.0561  169.6545 C.ar    1  UNL1        0.0685
      7 C         142.6360  141.1851  170.6220 C.ar    1  UNL1        0.0118
      8 C         141.4575  140.3832  170.1551 C.ar    1  UNL1        0.0199
      9 C         141.0241  140.4523  168.7208 C.ar    1  UNL1        0.0844
     10 N         139.8455  139.6504  168.2538 N.ar    1  UNL1       -0.2119
     11 C         139.4122  139.7196  166.8195 C.ar    1  UNL1        0.2211
     12 C         144.5598  142.8580  170.1214 C.1     1  UNL1        0.1004
     13 N         145.7383  143.6598  170.5883 N.1     1  UNL1       -0.1908
     14 O         138.2336  138.9177  166.3525 O.3     1  UNL1       -0.4563
     15 C         137.3691  138.2047  167.3497 C.3     1  UNL1        0.2542
     16 C         139.0357  141.8880  163.9004 C.ar    1  UNL1        0.0215
     17 C         138.5246  142.9214  164.8600 C.ar    1  UNL1       -0.0007
     18 C         137.8362  144.1498  164.3428 C.ar    1  UNL1        0.0030
     19 C         137.6590  144.3447  162.8662 C.ar    1  UNL1        0.0402
     20 C         138.1701  143.3112  161.9066 C.ar    1  UNL1        0.1761
     21 C         138.8585  142.0829  162.4237 C.ar    1  UNL1        0.1728
     22 O         139.2546  141.2429  161.2458 O.3     1  UNL1       -0.4349
     23 C         138.8110  141.9520  160.0007 C.3     1  UNL1        0.4294
     24 O         138.1408  143.2303  160.4091 O.3     1  UNL1       -0.4346
     25 C         139.9790  139.5005  163.5004 C.3     1  UNL1        0.1162
     26 O         138.5042  139.2380  163.4222 O.3     1  UNL1       -0.3820
     27 H         138.3418  138.4747  162.8462 H       1  UNL1        0.2107
     28 C         143.5492  141.0818  162.7913 C.ar    1  UNL1        0.2272
     29 C         142.0745  140.8193  162.7131 C.ar    1  UNL1        0.0559
     30 C         141.4538  139.7631  163.5786 C.ar    1  UNL1        0.0117
     31 C         142.3079  138.9694  164.5222 C.ar    1  UNL1        0.0559
     32 C         143.7826  139.2319  164.6004 C.ar    1  UNL1        0.2272
     33 N         144.4033  140.2881  163.7349 N.ar    1  UNL1       -0.1767
     34 C         144.4083  143.5134  162.4752 C.3     1  UNL1        0.2542
     35 O         144.1699  142.1381  161.9257 O.3     1  UNL1       -0.4561
     36 O         144.6367  138.4382  165.5442 O.3     1  UNL1       -0.4561
     37 C         144.0198  137.7852  166.7454 C.3     1  UNL1        0.2542
     38 C         140.2340  138.3413  162.5832 C.3     1  UNL1        0.0491
     39 C         139.5656  138.2854  161.2416 C.3     1  UNL1        0.0750
     40 N         140.3861  138.3863  159.9900 N.3     1  UNL1       -0.2702
     41 C         139.7109  138.5688  158.6631 C.3     1  UNL1        0.0897
     42 C         141.8820  138.3048  160.0653 C.3     1  UNL1        0.0897
@<TRIPOS>BOND
     1    34    35    1
     2    35    28    1
     3    28    29   ar
     4    29    30   ar
     5    30    25    1
     6    25    26    1
     7    25    38    1
     8    38    39    1
     9    39    40    1
    10    40    41    1
    11    40    42    1
    12    25     1    1
    13     1     2    1
    14     2     3   ar
    15     3     4   ar
    16     4     5   ar
    17     5     6   ar
    18     6    12    1
    19    12    13    3
    20     6     7   ar
    21     7     8   ar
    22     8     9   ar
    23     9    10   ar
    24    10    11   ar
    25    11    14    1
    26    14    15    1
    27     1    16    1
    28    16    17   ar
    29    17    18   ar
    30    18    19   ar
    31    19    20   ar
    32    20    21   ar
    33    21    22    1
    34    22    23    1
    35    23    24    1
    36    30    31   ar
    37    31    32   ar
    38    32    36    1
    39    36    37    1
    40    32    33   ar
    41    33    28   ar
    42    11     2   ar
    43    21    16   ar
    44     9     4   ar
    45    24    20    1
    46    26    27    1
@<TRIPOS>MOLECULE
*****
 42 46 0 0 0
SMALL
GASTEIGER

@<TRIPOS>ATOM
      1 C         140.7430  140.7938  162.6557 C.3     1  UNL1        0.0807
      2 C         140.1878  140.5061  164.0192 C.ar    1  UNL1        0.0375
      3 C         140.8550  141.0751  165.2361 C.ar    1  UNL1        0.0023
      4 C         140.2998  140.7873  166.5996 C.ar    1  UNL1        0.0183
      5 C         140.9670  141.3563  167.8165 C.ar    1  UNL1        0.0118
      6 C         140.4118  141.0685  169.1799 C.ar    1  UNL1        0.0685
      7 C         139.1893  140.2117  169.3263 C.ar    1  UNL1        0.0118
      8 C         138.5221  139.6427  168.1094 C.ar    1  UNL1        0.0199
      9 C         139.0773  139.9305  166.7460 C.ar    1  UNL1        0.0844
     10 N         138.4100  139.3615  165.5290 N.ar    1  UNL1       -0.2119
     11 C         138.9653  139.6493  164.1656 C.ar    1  UNL1        0.2211
     12 C         141.0790  141.6376  170.3969 C.1     1  UNL1        0.1004
     13 N         141.7462  142.2065  171.6139 N.1     1  UNL1       -0.1908
     14 O         138.2980  139.0803  162.9486 O.3     1  UNL1       -0.4563
     15 C         138.5559  137.6580  162.5478 C.3     1  UNL1        0.2542
     16 C         141.5569  139.7550  161.9428 C.ar    1  UNL1        0.0215
     17 C         142.7511  139.1460  162.6157 C.ar    1  UNL1       -0.0007
     18 C         143.5651  138.1071  161.9027 C.ar    1  UNL1        0.0030
     19 C         143.1848  137.6773  160.5169 C.ar    1  UNL1        0.0402
     20 C         141.9905  138.2863  159.8440 C.ar    1  UNL1        0.1761
     21 C         141.1766  139.3252  160.5569 C.ar    1  UNL1        0.1728
     22 O         140.0604  139.7446  159.6468 O.3     1  UNL1       -0.4349
     23 C         140.1846  138.9649  158.3714 C.3     1  UNL1        0.4294
     24 O         141.3774  138.0637  158.4932 O.3     1  UNL1       -0.4346
     25 C         140.4843  142.1205  162.0053 C.3     1  UNL1        0.1162
     26 O         139.0257  141.7857  161.9027 O.3     1  UNL1       -0.3820
     27 H         138.5536  142.5224  161.4840 H       1  UNL1        0.2107
     28 C         144.2646  142.7656  160.9840 C.ar    1  UNL1        0.2272
     29 C         142.8060  142.4309  160.8814 C.ar    1  UNL1        0.0559
     30 C         141.9428  142.4552  162.1079 C.ar    1  UNL1        0.0117
     31 C         142.5382  142.8143  163.4370 C.ar    1  UNL1        0.0559
     32 C         143.9968  143.1491  163.5396 C.ar    1  UNL1        0.2272
     33 N         144.8600  143.1248  162.3131 N.ar    1  UNL1       -0.1767
     34 C         144.5236  142.4254  158.4213 C.3     1  UNL1        0.2542
     35 O         145.1278  142.7413  159.7574 O.3     1  UNL1       -0.4561
     36 O         144.5922  143.5082  164.8687 O.3     1  UNL1       -0.4561
     37 C         143.9788  142.9814  166.1322 C.3     1  UNL1        0.2542
     38 C         140.2256  143.4471  161.3548 C.3     1  UNL1        0.0491
     39 C         139.9332  144.6520  162.1990 C.3     1  UNL1        0.0750
     40 N         139.0355  144.5302  163.3945 N.3     1  UNL1       -0.2702
     41 C         137.5576  144.3543  163.2079 C.3     1  UNL1        0.0897
     42 C         139.6156  144.5844  164.7767 C.3     1  UNL1        0.0897
@<TRIPOS>BOND
     1    34    35    1
     2    35    28    1
     3    28    29   ar
     4    29    30   ar
     5    30    25    1
     6    25    26    1
     7    25    38    1
     8    38    39    1
     9    39    40    1
    10    40    41    1
    11    40    42    1
    12    25     1    1
    13     1     2    1
    14     2     3   ar
    15     3     4   ar
    16     4     5   ar
    17     5     6   ar
    18     6    12    1
    19    12    13    3
    20     6     7   ar
    21     7     8   ar
    22     8     9   ar
    23     9    10   ar
    24    10    11   ar
    25    11    14    1
    26    14    15    1
    27     1    16    1
    28    16    17   ar
    29    17    18   ar
    30    18    19   ar
    31    19    20   ar
    32    20    21   ar
    33    21    22    1
    34    22    23    1
    35    23    24    1
    36    30    31   ar
    37    31    32   ar
    38    32    36    1
    39    36    37    1
    40    32    33   ar
    41    33    28   ar
    42    11     2   ar
    43    21    16   ar
    44     9     4   ar
    45    24    20    1
    46    26    27    1
@<TRIPOS>MOLECULE
*****
 42 46 0 0 0
SMALL
GASTEIGER

@<TRIPOS>ATOM
      1 C         140.7409  140.7870  162.6714 C.3     1  UNL1        0.0807
      2 C         140.1846  140.4948  164.0336 C.ar    1  UNL1        0.0375
      3 C         140.8472  141.0651  165.2524 C.ar    1  UNL1        0.0023
      4 C         140.2909  140.7729  166.6145 C.ar    1  UNL1        0.0183
      5 C         140.9535  141.3431  167.8334 C.ar    1  UNL1        0.0118
      6 C         140.3972  141.0510  169.1954 C.ar    1  UNL1        0.0685
      7 C         139.1783  140.1885  169.3385 C.ar    1  UNL1        0.0118
      8 C         138.5157  139.6183  168.1197 C.ar    1  UNL1        0.0199
      9 C         139.0720  139.9105  166.7577 C.ar    1  UNL1        0.0844
     10 N         138.4094  139.3402  165.5387 N.ar    1  UNL1       -0.2119
     11 C         138.9657  139.6324  164.1767 C.ar    1  UNL1        0.2211
     12 C         141.0598  141.6212  170.4144 C.1     1  UNL1        0.1004
     13 N         141.7224  142.1914  171.6333 N.1     1  UNL1       -0.1908
     14 O         138.3031  139.0621  162.9577 O.3     1  UNL1       -0.4563
     15 C         138.5507  137.6350  162.5679 C.3     1  UNL1        0.2542
     16 C         141.5481  139.7473  161.9522 C.ar    1  UNL1        0.0215
     17 C         142.7486  139.1391  162.6146 C.ar    1  UNL1       -0.0007
     18 C         143.5559  138.0993  161.8954 C.ar    1  UNL1        0.0030
     19 C         143.1626  137.6679  160.5136 C.ar    1  UNL1        0.0402
     20 C         141.9621  138.2762  159.8511 C.ar    1  UNL1        0.1761
     21 C         141.1549  139.3159  160.5704 C.ar    1  UNL1        0.1728
     22 O         140.0304  139.7342  159.6702 O.3     1  UNL1       -0.4349
     23 C         140.1426  138.9531  158.3946 C.3     1  UNL1        0.4294
     24 O         141.3365  138.0519  158.5064 O.3     1  UNL1       -0.4346
     25 C         140.4899  142.1189  162.0287 C.3     1  UNL1        0.1162
     26 O         139.0281  141.7968  161.9321 O.3     1  UNL1       -0.3820
     27 H         138.5600  142.5394  161.5194 H       1  UNL1        0.2107
     28 C         144.0244  143.0841  163.5537 C.ar    1  UNL1        0.2272
     29 C         142.5626  142.7620  163.4571 C.ar    1  UNL1        0.0559
     30 C         141.9518  142.4409  162.1253 C.ar    1  UNL1        0.0117
     31 C         142.8028  142.4419  160.8901 C.ar    1  UNL1        0.0559
     32 C         144.2646  142.7640  160.9867 C.ar    1  UNL1        0.2272
     33 N         144.8754  143.0851  162.3185 N.ar    1  UNL1       -0.1767
     34 C         143.9478  142.9781  166.1485 C.3     1  UNL1        0.2542
     35 O         144.6352  143.4052  164.8856 O.3     1  UNL1       -0.4561
     36 O         145.1156  142.7650  159.7514 O.3     1  UNL1       -0.4561
     37 C         144.5144  142.4012  158.4262 C.3     1  UNL1        0.2542
     38 C         140.2390  143.4507  161.3860 C.3     1  UNL1        0.0491
     39 C         139.9439  144.6504  162.2367 C.3     1  UNL1        0.0750
     40 N         139.0368  144.5227  163.4245 N.3     1  UNL1       -0.2702
     41 C         137.5567  144.3821  163.2262 C.3     1  UNL1        0.0897
     42 C         139.6099  144.5356  164.8106 C.3     1  UNL1        0.0897
@<TRIPOS>BOND
     1    34    35    1
     2    35    28    1
     3    28    29   ar
     4    29    30   ar
     5    30    25    1
     6    25    26    1
     7    25    38    1
     8    38    39    1
     9    39    40    1
    10    40    41    1
    11    40    42    1
    12    25     1    1
    13     1     2    1
    14     2     3   ar
    15     3     4   ar
    16     4     5   ar
    17     5     6   ar
    18     6    12    1
    19    12    13    3
    20     6     7   ar
    21     7     8   ar
    22     8     9   ar
    23     9    10   ar
    24    10    11   ar
    25    11    14    1
    26    14    15    1
    27     1    16    1
    28    16    17   ar
    29    17    18   ar
    30    18    19   ar
    31    19    20   ar
    32    20    21   ar
    33    21    22    1
    34    22    23    1
    35    23    24    1
    36    30    31   ar
    37    31    32   ar
    38    32    36    1
    39    36    37    1
    40    32    33   ar
    41    33    28   ar
    42    11     2   ar
    43    21    16   ar
    44     9     4   ar
    45    24    20    1
    46    26    27    1
@<TRIPOS>MOLECULE
*****
 42 46 0 0 0
SMALL
GASTEIGER

@<TRIPOS>ATOM
      1 C         141.2836  140.9568  162.4770 C.3     1  UNL1        0.0807
      2 C         141.3158  140.7536  163.9628 C.ar    1  UNL1        0.0375
      3 C         140.9636  141.8851  164.8824 C.ar    1  UNL1        0.0023
      4 C         140.9957  141.6819  166.3682 C.ar    1  UNL1        0.0183
      5 C         140.6435  142.8134  167.2878 C.ar    1  UNL1        0.0118
      6 C         140.6756  142.6101  168.7735 C.ar    1  UNL1        0.0685
      7 C         141.0599  141.2754  169.3398 C.ar    1  UNL1        0.0118
      8 C         141.4121  140.1438  168.4203 C.ar    1  UNL1        0.0199
      9 C         141.3800  140.3471  166.9345 C.ar    1  UNL1        0.0844
     10 N         141.7322  139.2155  166.0149 N.ar    1  UNL1       -0.2119
     11 C         141.7001  139.4188  164.5291 C.ar    1  UNL1        0.2211
     12 C         140.3234  143.7417  169.6931 C.1     1  UNL1        0.1004
     13 N         139.9712  144.8732  170.6127 N.1     1  UNL1       -0.1908
     14 O         142.0523  138.2872  163.6095 O.3     1  UNL1       -0.4563
     15 C         141.0184  137.2604  163.2537 C.3     1  UNL1        0.2542
     16 C         140.1105  140.4706  161.6787 C.ar    1  UNL1        0.0215
     17 C         138.7154  140.8077  162.1144 C.ar    1  UNL1       -0.0007
     18 C         137.5422  140.3215  161.3161 C.ar    1  UNL1        0.0030
     19 C         137.7642  139.4981  160.0821 C.ar    1  UNL1        0.0402
     20 C         139.1594  139.1609  159.6464 C.ar    1  UNL1        0.1761
     21 C         140.3325  139.6472  160.4447 C.ar    1  UNL1        0.1728
     22 O         141.5830  139.1602  159.7745 O.3     1  UNL1       -0.4349
     23 C         141.1827  138.3730  158.5621 C.3     1  UNL1        0.4294
     24 O         139.6848  138.3734  158.4829 O.3     1  UNL1       -0.4346
     25 C         142.4247  141.6463  161.7895 C.3     1  UNL1        0.1162
     26 O         143.3196  140.4863  162.1114 O.3     1  UNL1       -0.3820
     27 H         144.2081  140.6566  161.7617 H       1  UNL1        0.2107
     28 C         140.3707  144.3353  159.7159 C.ar    1  UNL1        0.2272
     29 C         141.2656  143.1754  160.0379 C.ar    1  UNL1        0.0559
     30 C         141.5298  142.8062  161.4675 C.ar    1  UNL1        0.0117
     31 C         140.8991  143.5970  162.5751 C.ar    1  UNL1        0.0559
     32 C         140.0042  144.7570  162.2531 C.ar    1  UNL1        0.2272
     33 N         139.7400  145.1261  160.8235 N.ar    1  UNL1       -0.1767
     34 C         140.9577  145.7371  157.6086 C.3     1  UNL1        0.2542
     35 O         140.1064  144.7045  158.2862 O.3     1  UNL1       -0.4561
     36 O         139.3736  145.5477  163.3608 O.3     1  UNL1       -0.4561
     37 C         138.9056  144.8536  164.6055 C.3     1  UNL1        0.2542
     38 C         143.5657  142.3357  161.1020 C.3     1  UNL1        0.0491
     39 C         144.5345  143.1585  161.8985 C.3     1  UNL1        0.0750
     40 N         144.8348  142.7938  163.3222 N.3     1  UNL1       -0.2702
     41 C         144.1686  143.5355  164.4429 C.3     1  UNL1        0.0897
     42 C         145.8014  141.6876  163.6252 C.3     1  UNL1        0.0897
@<TRIPOS>BOND
     1    34    35    1
     2    35    28    1
     3    28    29   ar
     4    29    30   ar
     5    30    25    1
     6    25    26    1
     7    25    38    1
     8    38    39    1
     9    39    40    1
    10    40    41    1
    11    40    42    1
    12    25     1    1
    13     1     2    1
    14     2     3   ar
    15     3     4   ar
    16     4     5   ar
    17     5     6   ar
    18     6    12    1
    19    12    13    3
    20     6     7   ar
    21     7     8   ar
    22     8     9   ar
    23     9    10   ar
    24    10    11   ar
    25    11    14    1
    26    14    15    1
    27     1    16    1
    28    16    17   ar
    29    17    18   ar
    30    18    19   ar
    31    19    20   ar
    32    20    21   ar
    33    21    22    1
    34    22    23    1
    35    23    24    1
    36    30    31   ar
    37    31    32   ar
    38    32    36    1
    39    36    37    1
    40    32    33   ar
    41    33    28   ar
    42    11     2   ar
    43    21    16   ar
    44     9     4   ar
    45    24    20    1
    46    26    27    1
@<TRIPOS>MOLECULE
*****
 42 46 0 0 0
SMALL
GASTEIGER

@<TRIPOS>ATOM
      1 C         139.6861  140.8188  164.3672 C.3     1  UNL1        0.0807
      2 C         140.1183  140.7162  165.8000 C.ar    1  UNL1        0.0375
      3 C         141.3103  141.4894  166.2810 C.ar    1  UNL1        0.0023
      4 C         141.7425  141.3867  167.7138 C.ar    1  UNL1        0.0183
      5 C         142.9344  142.1599  168.1948 C.ar    1  UNL1        0.0118
      6 C         143.3666  142.0572  169.6275 C.ar    1  UNL1        0.0685
      7 C         142.6068  141.1813  170.5791 C.ar    1  UNL1        0.0118
      8 C         141.4149  140.4081  170.0981 C.ar    1  UNL1        0.0199
      9 C         140.9828  140.5108  168.6654 C.ar    1  UNL1        0.0844
     10 N         139.7908  139.7376  168.1843 N.ar    1  UNL1       -0.2119
     11 C         139.3586  139.8403  166.7516 C.ar    1  UNL1        0.2211
     12 C         144.5586  142.8304  170.1086 C.1     1  UNL1        0.1004
     13 N         145.7505  143.6036  170.5897 N.1     1  UNL1       -0.1908
     14 O         138.1666  139.0671  166.2705 O.3     1  UNL1       -0.4563
     15 C         137.3910  138.2119  167.2281 C.3     1  UNL1        0.2542
     16 C         139.3396  142.1559  163.7823 C.ar    1  UNL1        0.0215
     17 C         137.9030  142.5337  163.5739 C.ar    1  UNL1       -0.0007
     18 C         137.5564  143.8708  162.9890 C.ar    1  UNL1        0.0030
     19 C         138.6464  144.8301  162.6126 C.ar    1  UNL1        0.0402
     20 C         140.0830  144.4522  162.8211 C.ar    1  UNL1        0.1761
     21 C         140.4296  143.1152  163.4059 C.ar    1  UNL1        0.1728
     22 O         141.9240  143.0213  163.4944 O.3     1  UNL1       -0.4349
     23 C         142.5010  144.3003  162.9642 C.3     1  UNL1        0.4294
     24 O         141.3632  145.1847  162.5481 O.3     1  UNL1       -0.4346
     25 C         139.6005  139.5844  163.5194 C.3     1  UNL1        0.1162
     26 O         138.1104  139.5698  163.6911 O.3     1  UNL1       -0.3820
     27 H         137.7370  138.8141  163.2112 H       1  UNL1        0.2107
     28 C         143.4665  139.0892  164.2669 C.ar    1  UNL1        0.2272
     29 C         141.9764  139.0747  164.4386 C.ar    1  UNL1        0.0559
     30 C         141.0905  139.5990  163.3476 C.ar    1  UNL1        0.0117
     31 C         141.6948  140.1378  162.0849 C.ar    1  UNL1        0.0559
     32 C         143.1848  140.1524  161.9132 C.ar    1  UNL1        0.2272
     33 N         144.0707  139.6281  163.0042 N.ar    1  UNL1       -0.1767
     34 C         143.7560  138.1276  166.6631 C.3     1  UNL1        0.2542
     35 O         144.3523  138.5649  165.3580 O.3     1  UNL1       -0.4561
     36 O         143.7890  140.6913  160.6504 O.3     1  UNL1       -0.4561
     37 C         143.7386  139.8805  159.3894 C.3     1  UNL1        0.2542
     38 C         139.5148  138.3500  162.6715 C.3     1  UNL1        0.0491
     39 C         138.5053  138.2685  161.5652 C.3     1  UNL1        0.0750
     40 N         138.6293  139.1653  160.3692 N.3     1  UNL1       -0.2702
     41 C         137.8400  140.4391  160.3018 C.3     1  UNL1        0.0897
     42 C         139.5425  138.7884  159.2406 C.3     1  UNL1        0.0897
@<TRIPOS>BOND
     1    34    35    1
     2    35    28    1
     3    28    29   ar
     4    29    30   ar
     5    30    25    1
     6    25    26    1
     7    25    38    1
     8    38    39    1
     9    39    40    1
    10    40    41    1
    11    40    42    1
    12    25     1    1
    13     1     2    1
    14     2     3   ar
    15     3     4   ar
    16     4     5   ar
    17     5     6   ar
    18     6    12    1
    19    12    13    3
    20     6     7   ar
    21     7     8   ar
    22     8     9   ar
    23     9    10   ar
    24    10    11   ar
    25    11    14    1
    26    14    15    1
    27     1    16    1
    28    16    17   ar
    29    17    18   ar
    30    18    19   ar
    31    19    20   ar
    32    20    21   ar
    33    21    22    1
    34    22    23    1
    35    23    24    1
    36    30    31   ar
    37    31    32   ar
    38    32    36    1
    39    36    37    1
    40    32    33   ar
    41    33    28   ar
    42    11     2   ar
    43    21    16   ar
    44     9     4   ar
    45    24    20    1
    46    26    27    1
@<TRIPOS>MOLECULE
*****
 42 46 0 0 0
SMALL
GASTEIGER

@<TRIPOS>ATOM
      1 C         142.1444  141.2775  162.7958 C.3     1  UNL1        0.0807
      2 C         142.3763  141.5483  164.2528 C.ar    1  UNL1        0.0375
      3 C         141.5218  140.8758  165.2860 C.ar    1  UNL1        0.0023
      4 C         141.7537  141.1466  166.7431 C.ar    1  UNL1        0.0183
      5 C         140.8992  140.4741  167.7762 C.ar    1  UNL1        0.0118
      6 C         141.1311  140.7449  169.2332 C.ar    1  UNL1        0.0685
      7 C         142.2176  141.6883  169.6570 C.ar    1  UNL1        0.0118
      8 C         143.0722  142.3608  168.6238 C.ar    1  UNL1        0.0199
      9 C         142.8402  142.0899  167.1669 C.ar    1  UNL1        0.0844
     10 N         143.6948  142.7624  166.1336 N.ar    1  UNL1       -0.2119
     11 C         143.4628  142.4916  164.6767 C.ar    1  UNL1        0.2211
     12 C         140.2766  140.0724  170.2664 C.1     1  UNL1        0.1004
     13 N         139.4221  139.3999  171.2996 N.1     1  UNL1       -0.1908
     14 O         144.3174  143.1641  163.6434 O.3     1  UNL1       -0.4563
     15 C         144.0494  144.5895  163.2607 C.3     1  UNL1        0.2542
     16 C         141.4234  142.2857  161.9510 C.ar    1  UNL1        0.0215
     17 C         142.1191  142.9209  160.7838 C.ar    1  UNL1       -0.0007
     18 C         141.3981  143.9292  159.9390 C.ar    1  UNL1        0.0030
     19 C         139.9814  144.3022  160.2615 C.ar    1  UNL1        0.0402
     20 C         139.2858  143.6669  161.4288 C.ar    1  UNL1        0.1761
     21 C         140.0067  142.6587  162.2735 C.ar    1  UNL1        0.1728
     22 O         139.0697  142.2031  163.3526 O.3     1  UNL1       -0.4349
     23 C         137.7696  142.9298  163.1747 C.3     1  UNL1        0.4294
     24 O         137.9031  143.8345  161.9857 O.3     1  UNL1       -0.4346
     25 C         142.6334  139.9984  162.1836 C.3     1  UNL1        0.1162
     26 O         144.0401  140.5180  162.2217 O.3     1  UNL1       -0.3820
     27 H         144.6414  139.8502  161.8567 H       1  UNL1        0.2107
     28 C         139.2472  138.2576  163.3027 C.ar    1  UNL1        0.2272
     29 C         140.6538  138.7772  163.3409 C.ar    1  UNL1        0.0559
     30 C         141.2268  139.4788  162.1454 C.ar    1  UNL1        0.0117
     31 C         140.3932  139.6609  160.9117 C.ar    1  UNL1        0.0559
     32 C         138.9866  139.1414  160.8736 C.ar    1  UNL1        0.2272
     33 N         138.4136  138.4397  162.0691 N.ar    1  UNL1       -0.1767
     34 C         138.4294  138.3160  165.7681 C.3     1  UNL1        0.2542
     35 O         138.6741  137.5559  164.4983 O.3     1  UNL1       -0.4561
     36 O         138.1530  139.3235  159.6398 O.3     1  UNL1       -0.4561
     37 C         138.1666  140.6352  158.9125 C.3     1  UNL1        0.2542
     38 C         143.1225  138.7194  161.5713 C.3     1  UNL1        0.0491
     39 C         144.0448  138.7584  160.3891 C.3     1  UNL1        0.0750
     40 N         143.4964  139.0239  159.0184 N.3     1  UNL1       -0.2702
     41 C         142.6282  138.0014  158.3470 C.3     1  UNL1        0.0897
     42 C         143.8160  140.3118  158.3192 C.3     1  UNL1        0.0897
@<TRIPOS>BOND
     1    34    35    1
     2    35    28    1
     3    28    29   ar
     4    29    30   ar
     5    30    25    1
     6    25    26    1
     7    25    38    1
     8    38    39    1
     9    39    40    1
    10    40    41    1
    11    40    42    1
    12    25     1    1
    13     1     2    1
    14     2     3   ar
    15     3     4   ar
    16     4     5   ar
    17     5     6   ar
    18     6    12    1
    19    12    13    3
    20     6     7   ar
    21     7     8   ar
    22     8     9   ar
    23     9    10   ar
    24    10    11   ar
    25    11    14    1
    26    14    15    1
    27     1    16    1
    28    16    17   ar
    29    17    18   ar
    30    18    19   ar
    31    19    20   ar
    32    20    21   ar
    33    21    22    1
    34    22    23    1
    35    23    24    1
    36    30    31   ar
    37    31    32   ar
    38    32    36    1
    39    36    37    1
    40    32    33   ar
    41    33    28   ar
    42    11     2   ar
    43    21    16   ar
    44     9     4   ar
    45    24    20    1
    46    26    27    1
