@<TRIPOS>MOLECULE
*****
 35 38 0 0 0
SMALL
GASTEIGER

@<TRIPOS>ATOM
      1 N         142.7158  144.1565  163.3784 N.3     1  UNL1       -0.2689
      2 C         142.5915  143.3295  162.1332 C.3     1  UNL1        0.0737
      3 C         141.2416  143.0865  161.5260 C.3     1  UNL1        0.0356
      4 C         140.0161  143.6703  162.1641 C.3     1  UNL1        0.0845
      5 C         140.1405  144.4973  163.4093 C.3     1  UNL1        0.1455
      6 C         141.4904  144.7403  164.0165 C.3     1  UNL1        0.1034
      7 N         138.6661  143.4273  161.5569 N.3     1  UNL1       -0.2928
      8 H         138.8259  143.1184  160.5980 H       1  UNL1        0.1236
      9 C         137.7306  142.4348  162.1813 C.3     1  UNL1        0.0972
     10 C         138.2676  141.1601  162.7615 C.ar    1  UNL1        0.0135
     11 C         139.1189  140.2541  161.9221 C.ar    1  UNL1        0.0955
     12 N         139.6558  138.9794  162.5022 N.ar    1  UNL1       -0.2477
     13 C         139.3416  138.6106  163.9219 C.ar    1  UNL1        0.0689
     14 C         139.8785  137.3358  164.5020 C.3     1  UNL1        0.0528
     15 C         138.4903  139.5165  164.7613 C.ar    1  UNL1        0.0817
     16 C         137.9533  140.7913  164.1810 C.ar    1  UNL1        0.0101
     17 C         138.1760  139.1478  166.1808 C.1     1  UNL1        0.1016
     18 N         137.8618  138.7790  167.6004 N.1     1  UNL1       -0.1908
     19 O         138.9149  145.0811  164.0474 O.3     1  UNL1       -0.3508
     20 C         138.5674  144.7306  165.4639 C.3     1  UNL1        0.1741
     21 C         144.0658  144.3995  163.9856 C.3     1  UNL1        0.0970
     22 C         144.6034  143.4564  165.0207 C.3     1  UNL1        0.1264
     23 C         141.5596  141.7034  167.8336 C.ar    1  UNL1        0.1593
     24 C         141.2264  140.2427  167.7625 C.ar    1  UNL1        0.1357
     25 N         141.9078  139.3662  166.7538 N.ar    1  UNL1       -0.2392
     26 C         142.9224  139.9505  165.8162 C.ar    1  UNL1        0.0975
     27 C         143.6038  139.0740  164.8075 C.ar    1  UNL1        0.0255
     28 C         144.6184  139.6583  163.8699 C.ar    1  UNL1        0.0623
     29 C         144.9516  141.1191  163.9410 C.ar    1  UNL1        0.2611
     30 O         145.9662  141.7034  163.0033 O.2     1  UNL1       -0.2670
     31 N         144.2702  141.9956  164.9497 N.ar    1  UNL1       -0.2926
     32 C         143.2556  141.4112  165.8873 C.ar    1  UNL1        0.0832
     33 C         142.5742  142.2877  166.8960 C.ar    1  UNL1        0.0573
     34 C         139.9397  141.9786  169.8461 C.3     1  UNL1        0.2525
     35 O         140.8782  142.5799  168.8423 O.3     1  UNL1       -0.4698
@<TRIPOS>BOND
     1    34    35    1
     2    35    23    1
     3    23    24   ar
     4    24    25   ar
     5    25    26   ar
     6    26    27   ar
     7    27    28   ar
     8    28    29   ar
     9    29    30    2
    10    29    31   ar
    11    31    22    1
    12    22    21    1
    13    21     1    1
    14     1     2    1
    15     2     3    1
    16     3     4    1
    17     4     7    1
    18     7     9    1
    19     9    10    1
    20    10    11   ar
    21    11    12   ar
    22    12    13   ar
    23    13    14    1
    24    13    15   ar
    25    15    17    1
    26    17    18    3
    27    15    16   ar
    28     4     5    1
    29     5    19    1
    30    19    20    1
    31     5     6    1
    32    31    32   ar
    33    32    33   ar
    34    33    23   ar
    35    32    26   ar
    36     6     1    1
    37    16    10   ar
    38     7     8    1
@<TRIPOS>MOLECULE
*****
 35 38 0 0 0
SMALL
GASTEIGER

@<TRIPOS>ATOM
      1 N         138.1775  140.1512  162.8578 N.3     1  UNL1       -0.2689
      2 C         137.9558  140.9874  164.0832 C.3     1  UNL1        0.0737
      3 C         137.8141  142.4756  163.9601 C.3     1  UNL1        0.0356
      4 C         137.8941  143.1276  162.6116 C.3     1  UNL1        0.0845
      5 C         138.1158  142.2913  161.3862 C.3     1  UNL1        0.1455
      6 C         138.2575  140.8032  161.5093 C.3     1  UNL1        0.1034
      7 N         137.7524  144.6158  162.4884 N.3     1  UNL1       -0.2928
      8 H         137.0156  144.8960  163.1357 H       1  UNL1        0.1236
      9 C         138.9287  145.5062  162.7597 C.3     1  UNL1        0.0972
     10 C         140.3225  144.9901  162.5570 C.ar    1  UNL1        0.0135
     11 C         140.9104  144.9395  161.1780 C.ar    1  UNL1        0.0955
     12 N         142.3041  144.4235  160.9753 N.ar    1  UNL1       -0.2477
     13 C         143.1101  143.9580  162.1517 C.ar    1  UNL1        0.0689
     14 C         144.5038  143.4420  161.9490 C.3     1  UNL1        0.0528
     15 C         142.5222  144.0087  163.5308 C.ar    1  UNL1        0.0817
     16 C         141.1283  144.5247  163.7334 C.ar    1  UNL1        0.0101
     17 C         143.3280  143.5432  164.7072 C.1     1  UNL1        0.1016
     18 N         144.1339  143.0778  165.8836 N.1     1  UNL1       -0.1908
     19 O         138.1958  142.9434  160.0376 O.3     1  UNL1       -0.3508
     20 C         139.0699  142.3543  158.9704 C.3     1  UNL1        0.1741
     21 C         138.3192  138.6630  162.9810 C.3     1  UNL1        0.0970
     22 C         139.0793  138.0747  164.1326 C.3     1  UNL1        0.1264
     23 C         140.3683  140.1732  167.8989 C.ar    1  UNL1        0.1593
     24 C         141.8114  140.5269  168.1040 C.ar    1  UNL1        0.1357
     25 N         142.8250  140.1812  167.0536 N.ar    1  UNL1       -0.2392
     26 C         142.3953  139.4817  165.7982 C.ar    1  UNL1        0.0975
     27 C         143.4089  139.1359  164.7479 C.ar    1  UNL1        0.0255
     28 C         142.9792  138.4365  163.4924 C.ar    1  UNL1        0.0623
     29 C         141.5360  138.0827  163.2873 C.ar    1  UNL1        0.2611
     30 O         141.1064  137.3832  162.0319 O.2     1  UNL1       -0.2670
     31 N         140.5225  138.4284  164.3377 N.ar    1  UNL1       -0.2926
     32 C         140.9522  139.1280  165.5931 C.ar    1  UNL1        0.0832
     33 C         139.9386  139.4737  166.6435 C.ar    1  UNL1        0.0573
     34 C         139.6496  140.2466  170.3945 C.3     1  UNL1        0.2525
     35 O         139.3547  140.5189  168.9492 O.3     1  UNL1       -0.4698
@<TRIPOS>BOND
     1    34    35    1
     2    35    23    1
     3    23    24   ar
     4    24    25   ar
     5    25    26   ar
     6    26    27   ar
     7    27    28   ar
     8    28    29   ar
     9    29    30    2
    10    29    31   ar
    11    31    22    1
    12    22    21    1
    13    21     1    1
    14     1     2    1
    15     2     3    1
    16     3     4    1
    17     4     7    1
    18     7     9    1
    19     9    10    1
    20    10    11   ar
    21    11    12   ar
    22    12    13   ar
    23    13    14    1
    24    13    15   ar
    25    15    17    1
    26    17    18    3
    27    15    16   ar
    28     4     5    1
    29     5    19    1
    30    19    20    1
    31     5     6    1
    32    31    32   ar
    33    32    33   ar
    34    33    23   ar
    35    32    26   ar
    36     6     1    1
    37    16    10   ar
    38     7     8    1
@<TRIPOS>MOLECULE
*****
 35 38 0 0 0
SMALL
GASTEIGER

@<TRIPOS>ATOM
      1 N         141.2141  144.7204  162.8187 N.3     1  UNL1       -0.2689
      2 C         142.2646  144.7685  163.8883 C.3     1  UNL1        0.0737
      3 C         143.6113  144.1544  163.6451 C.3     1  UNL1        0.0356
      4 C         143.9074  143.4921  162.3322 C.3     1  UNL1        0.0845
      5 C         142.8569  143.4440  161.2626 C.3     1  UNL1        0.1455
      6 C         141.5102  144.0581  161.5058 C.3     1  UNL1        0.1034
      7 N         145.2541  142.8778  162.0889 N.3     1  UNL1       -0.2928
      8 H         145.9452  143.6113  162.2468 H       1  UNL1        0.1236
      9 C         145.6926  141.6894  162.8923 C.3     1  UNL1        0.0972
     10 C         144.6885  140.6591  163.3166 C.ar    1  UNL1        0.0135
     11 C         143.8745  139.9358  162.2850 C.ar    1  UNL1        0.0955
     12 N         142.8703  138.9054  162.7092 N.ar    1  UNL1       -0.2477
     13 C         142.6802  138.5983  164.1652 C.ar    1  UNL1        0.0689
     14 C         141.6761  137.5680  164.5894 C.3     1  UNL1        0.0528
     15 C         143.4942  139.3216  165.1967 C.ar    1  UNL1        0.0817
     16 C         144.4984  140.3520  164.7724 C.ar    1  UNL1        0.0101
     17 C         143.3042  139.0145  166.6526 C.1     1  UNL1        0.1016
     18 N         143.1141  138.7074  168.1085 N.1     1  UNL1       -0.1908
     19 O         143.1531  142.7816  159.9497 O.3     1  UNL1       -0.3508
     20 C         142.8278  143.4842  158.6650 C.3     1  UNL1        0.1741
     21 C         139.8673  145.3347  163.0620 C.3     1  UNL1        0.0970
     22 C         138.9305  144.7177  164.0578 C.3     1  UNL1        0.1264
     23 C         140.4914  142.3381  167.5436 C.ar    1  UNL1        0.1593
     24 C         140.3074  140.8499  167.5782 C.ar    1  UNL1        0.1357
     25 N         139.6032  140.1548  166.4509 N.ar    1  UNL1       -0.2392
     26 C         139.0829  140.9480  165.2890 C.ar    1  UNL1        0.0975
     27 C         138.3786  140.2529  164.1616 C.ar    1  UNL1        0.0255
     28 C         137.8583  141.0461  162.9997 C.ar    1  UNL1        0.0623
     29 C         138.0423  142.5344  162.9651 C.ar    1  UNL1        0.2611
     30 O         137.5220  143.3276  161.8031 O.2     1  UNL1       -0.2670
     31 N         138.7465  143.2295  164.0924 N.ar    1  UNL1       -0.2926
     32 C         139.2668  142.4362  165.2544 C.ar    1  UNL1        0.0832
     33 C         139.9711  143.1313  166.3817 C.ar    1  UNL1        0.0573
     34 C         140.4010  143.7153  169.7448 C.3     1  UNL1        0.2525
     35 O         141.1956  143.0332  168.6710 O.3     1  UNL1       -0.4698
@<TRIPOS>BOND
     1    34    35    1
     2    35    23    1
     3    23    24   ar
     4    24    25   ar
     5    25    26   ar
     6    26    27   ar
     7    27    28   ar
     8    28    29   ar
     9    29    30    2
    10    29    31   ar
    11    31    22    1
    12    22    21    1
    13    21     1    1
    14     1     2    1
    15     2     3    1
    16     3     4    1
    17     4     7    1
    18     7     9    1
    19     9    10    1
    20    10    11   ar
    21    11    12   ar
    22    12    13   ar
    23    13    14    1
    24    13    15   ar
    25    15    17    1
    26    17    18    3
    27    15    16   ar
    28     4     5    1
    29     5    19    1
    30    19    20    1
    31     5     6    1
    32    31    32   ar
    33    32    33   ar
    34    33    23   ar
    35    32    26   ar
    36     6     1    1
    37    16    10   ar
    38     7     8    1
@<TRIPOS>MOLECULE
*****
 35 38 0 0 0
SMALL
GASTEIGER

@<TRIPOS>ATOM
      1 N         137.9243  142.8382  162.9750 N.3     1  UNL1       -0.2689
      2 C         138.1177  142.5300  161.5198 C.3     1  UNL1        0.0737
      3 C         138.2650  141.1075  161.0676 C.3     1  UNL1        0.0356
      4 C         138.2190  139.9931  162.0706 C.3     1  UNL1        0.0845
      5 C         138.0256  140.3013  163.5258 C.3     1  UNL1        0.1455
      6 C         137.8783  141.7239  163.9780 C.3     1  UNL1        0.1034
      7 N         138.3664  138.5705  161.6183 N.3     1  UNL1       -0.2928
      8 H         137.8642  138.4890  160.7343 H       1  UNL1        0.1236
      9 C         139.7323  137.9921  161.3954 C.3     1  UNL1        0.0972
     10 C         140.8047  138.1820  162.4267 C.ar    1  UNL1        0.0135
     11 C         140.7309  137.4434  163.7302 C.ar    1  UNL1        0.0955
     12 N         141.8034  137.6333  164.7616 N.ar    1  UNL1       -0.2477
     13 C         142.9496  138.5618  164.4895 C.ar    1  UNL1        0.0689
     14 C         144.0221  138.7517  165.5209 C.3     1  UNL1        0.0528
     15 C         143.0234  139.3004  163.1860 C.ar    1  UNL1        0.0817
     16 C         141.9509  139.1104  162.1546 C.ar    1  UNL1        0.0101
     17 C         144.1696  140.2289  162.9139 C.1     1  UNL1        0.1016
     18 N         145.3159  141.1574  162.6418 N.1     1  UNL1       -0.1908
     19 O         137.9796  139.1868  164.5288 O.3     1  UNL1       -0.3508
     20 C         138.3752  139.4427  165.9528 C.3     1  UNL1        0.1741
     21 C         137.7769  144.2609  163.4272 C.3     1  UNL1        0.0970
     22 C         138.8319  144.8865  164.2907 C.3     1  UNL1        0.1264
     23 C         140.8886  142.1253  167.1883 C.ar    1  UNL1        0.1593
     24 C         142.3314  141.7673  166.9877 C.ar    1  UNL1        0.1357
     25 N         143.0886  142.3296  165.8214 N.ar    1  UNL1       -0.2392
     26 C         142.4030  143.2500  164.8555 C.ar    1  UNL1        0.0975
     27 C         143.1603  143.8123  163.6892 C.ar    1  UNL1        0.0255
     28 C         142.4747  144.7327  162.7233 C.ar    1  UNL1        0.0623
     29 C         141.0319  145.0908  162.9238 C.ar    1  UNL1        0.2611
     30 O         140.3464  146.0112  161.9580 O.2     1  UNL1       -0.2670
     31 N         140.2747  144.5284  164.0902 N.ar    1  UNL1       -0.2926
     32 C         140.9603  143.6080  165.0560 C.ar    1  UNL1        0.0832
     33 C         140.2031  143.0457  166.2224 C.ar    1  UNL1        0.0573
     34 C         140.1815  142.2541  169.6849 C.3     1  UNL1        0.2525
     35 O         140.1314  141.5630  168.3546 O.3     1  UNL1       -0.4698
@<TRIPOS>BOND
     1    34    35    1
     2    35    23    1
     3    23    24   ar
     4    24    25   ar
     5    25    26   ar
     6    26    27   ar
     7    27    28   ar
     8    28    29   ar
     9    29    30    2
    10    29    31   ar
    11    31    22    1
    12    22    21    1
    13    21     1    1
    14     1     2    1
    15     2     3    1
    16     3     4    1
    17     4     7    1
    18     7     9    1
    19     9    10    1
    20    10    11   ar
    21    11    12   ar
    22    12    13   ar
    23    13    14    1
    24    13    15   ar
    25    15    17    1
    26    17    18    3
    27    15    16   ar
    28     4     5    1
    29     5    19    1
    30    19    20    1
    31     5     6    1
    32    31    32   ar
    33    32    33   ar
    34    33    23   ar
    35    32    26   ar
    36     6     1    1
    37    16    10   ar
    38     7     8    1
@<TRIPOS>MOLECULE
*****
 35 38 0 0 0
SMALL
GASTEIGER

@<TRIPOS>ATOM
      1 N         142.8491  143.4083  161.3896 N.3     1  UNL1       -0.2689
      2 C         143.1660  144.2105  162.6169 C.3     1  UNL1        0.0737
      3 C         142.0615  144.8728  163.3858 C.3     1  UNL1        0.0356
      4 C         140.6402  144.7330  162.9275 C.3     1  UNL1        0.0845
      5 C         140.3232  143.9309  161.7003 C.3     1  UNL1        0.1455
      6 C         141.4277  143.2685  160.9313 C.3     1  UNL1        0.1034
      7 N         139.5356  145.3954  163.6965 N.3     1  UNL1       -0.2928
      8 H         138.7235  145.4237  163.0800 H       1  UNL1        0.1236
      9 C         139.0716  144.8101  164.9973 C.3     1  UNL1        0.0972
     10 C         139.0022  143.3214  165.1675 C.ar    1  UNL1        0.0135
     11 C         137.9130  142.5396  164.4950 C.ar    1  UNL1        0.0955
     12 N         137.8435  141.0510  164.6652 N.ar    1  UNL1       -0.2477
     13 C         138.8634  140.3440  165.5079 C.ar    1  UNL1        0.0689
     14 C         138.7940  138.8553  165.6781 C.3     1  UNL1        0.0528
     15 C         139.9527  141.1258  166.1805 C.ar    1  UNL1        0.0817
     16 C         140.0221  142.6146  166.0102 C.ar    1  UNL1        0.0101
     17 C         140.9725  140.4190  167.0232 C.1     1  UNL1        0.1016
     18 N         141.9924  139.7121  167.8660 N.1     1  UNL1       -0.1908
     19 O         138.9018  143.7911  161.2420 O.3     1  UNL1       -0.3508
     20 C         138.3803  142.4517  160.8130 C.3     1  UNL1        0.1741
     21 C         143.9537  142.7459  160.6207 C.3     1  UNL1        0.0970
     22 C         144.1103  141.2548  160.6670 C.3     1  UNL1        0.1264
     23 C         140.6802  138.4092  161.2892 C.ar    1  UNL1        0.1593
     24 C         140.5375  137.6802  162.5924 C.ar    1  UNL1        0.1357
     25 N         141.5380  137.8998  163.6881 N.ar    1  UNL1       -0.2392
     26 C         142.6814  138.8483  163.4807 C.ar    1  UNL1        0.0975
     27 C         143.6819  139.0679  164.5765 C.ar    1  UNL1        0.0255
     28 C         144.8252  140.0164  164.3691 C.ar    1  UNL1        0.0623
     29 C         144.9681  140.7455  163.0659 C.ar    1  UNL1        0.2611
     30 O         146.1114  141.6940  162.8586 O.2     1  UNL1       -0.2670
     31 N         143.9675  140.5259  161.9702 N.ar    1  UNL1       -0.2926
     32 C         142.8241  139.5773  162.1776 C.ar    1  UNL1        0.0832
     33 C         141.8236  139.3577  161.0819 C.ar    1  UNL1        0.0573
     34 C         139.8065  138.9396  158.9007 C.3     1  UNL1        0.2525
     35 O         139.6797  138.1896  160.1935 O.3     1  UNL1       -0.4698
@<TRIPOS>BOND
     1    34    35    1
     2    35    23    1
     3    23    24   ar
     4    24    25   ar
     5    25    26   ar
     6    26    27   ar
     7    27    28   ar
     8    28    29   ar
     9    29    30    2
    10    29    31   ar
    11    31    22    1
    12    22    21    1
    13    21     1    1
    14     1     2    1
    15     2     3    1
    16     3     4    1
    17     4     7    1
    18     7     9    1
    19     9    10    1
    20    10    11   ar
    21    11    12   ar
    22    12    13   ar
    23    13    14    1
    24    13    15   ar
    25    15    17    1
    26    17    18    3
    27    15    16   ar
    28     4     5    1
    29     5    19    1
    30    19    20    1
    31     5     6    1
    32    31    32   ar
    33    32    33   ar
    34    33    23   ar
    35    32    26   ar
    36     6     1    1
    37    16    10   ar
    38     7     8    1
@<TRIPOS>MOLECULE
*****
 35 38 0 0 0
SMALL
GASTEIGER

@<TRIPOS>ATOM
      1 N         137.8763  142.8852  163.0402 N.3     1  UNL1       -0.2689
      2 C         137.7515  141.7403  164.0012 C.3     1  UNL1        0.0737
      3 C         137.8531  140.3289  163.5036 C.3     1  UNL1        0.0356
      4 C         138.0795  140.0625  162.0449 C.3     1  UNL1        0.0845
      5 C         138.2044  141.2075  161.0839 C.3     1  UNL1        0.1455
      6 C         138.1028  142.6188  161.5816 C.3     1  UNL1        0.1034
      7 N         138.1811  138.6511  161.5472 N.3     1  UNL1       -0.2928
      8 H         137.6955  138.6193  160.6508 H       1  UNL1        0.1236
      9 C         139.5280  138.0267  161.3324 C.3     1  UNL1        0.0972
     10 C         140.6012  138.1836  162.3685 C.ar    1  UNL1        0.0135
     11 C         140.4985  137.4484  163.6719 C.ar    1  UNL1        0.0955
     12 N         141.5717  137.6052  164.7080 N.ar    1  UNL1       -0.2477
     13 C         142.7477  138.4972  164.4407 C.ar    1  UNL1        0.0689
     14 C         143.8210  138.6540  165.4768 C.3     1  UNL1        0.0528
     15 C         142.8505  139.2323  163.1372 C.ar    1  UNL1        0.0817
     16 C         141.7772  139.0755  162.1011 C.ar    1  UNL1        0.0101
     17 C         144.0265  140.1242  162.8699 C.1     1  UNL1        0.1016
     18 N         145.2025  141.0162  162.6025 N.1     1  UNL1       -0.1908
     19 O         138.4309  140.9410  159.6252 O.3     1  UNL1       -0.3508
     20 C         139.8204  140.9840  159.0618 C.3     1  UNL1        0.1741
     21 C         137.7747  144.2966  163.5380 C.3     1  UNL1        0.0970
     22 C         138.8354  144.8512  164.4421 C.3     1  UNL1        0.1264
     23 C         140.8827  141.9594  167.2163 C.ar    1  UNL1        0.1593
     24 C         142.3215  141.5981  166.9943 C.ar    1  UNL1        0.1357
     25 N         143.0779  142.2007  165.8476 N.ar    1  UNL1       -0.2392
     26 C         142.3955  143.1646  164.9229 C.ar    1  UNL1        0.0975
     27 C         143.1518  143.7671  163.7763 C.ar    1  UNL1        0.0255
     28 C         142.4694  144.7311  162.8516 C.ar    1  UNL1        0.0623
     29 C         141.0305  145.0924  163.0735 C.ar    1  UNL1        0.2611
     30 O         140.3481  146.0564  162.1488 O.2     1  UNL1       -0.2670
     31 N         140.2742  144.4899  164.2201 N.ar    1  UNL1       -0.2926
     32 C         140.9567  143.5259  165.1449 C.ar    1  UNL1        0.0832
     33 C         140.2003  142.9234  166.2915 C.ar    1  UNL1        0.0573
     34 C         140.6684  140.1480  169.0663 C.3     1  UNL1        0.2525
     35 O         140.1264  141.3569  168.3629 O.3     1  UNL1       -0.4698
@<TRIPOS>BOND
     1    34    35    1
     2    35    23    1
     3    23    24   ar
     4    24    25   ar
     5    25    26   ar
     6    26    27   ar
     7    27    28   ar
     8    28    29   ar
     9    29    30    2
    10    29    31   ar
    11    31    22    1
    12    22    21    1
    13    21     1    1
    14     1     2    1
    15     2     3    1
    16     3     4    1
    17     4     7    1
    18     7     9    1
    19     9    10    1
    20    10    11   ar
    21    11    12   ar
    22    12    13   ar
    23    13    14    1
    24    13    15   ar
    25    15    17    1
    26    17    18    3
    27    15    16   ar
    28     4     5    1
    29     5    19    1
    30    19    20    1
    31     5     6    1
    32    31    32   ar
    33    32    33   ar
    34    33    23   ar
    35    32    26   ar
    36     6     1    1
    37    16    10   ar
    38     7     8    1
@<TRIPOS>MOLECULE
*****
 35 38 0 0 0
SMALL
GASTEIGER

@<TRIPOS>ATOM
      1 N         139.0005  139.7829  161.2845 N.3     1  UNL1       -0.2689
      2 C         139.9984  140.1643  160.2316 C.3     1  UNL1        0.0737
      3 C         141.3022  139.4293  160.1326 C.3     1  UNL1        0.0356
      4 C         141.6081  138.3129  161.0866 C.3     1  UNL1        0.0845
      5 C         140.6102  137.9315  162.1395 C.3     1  UNL1        0.1455
      6 C         139.3064  138.6665  162.2385 C.3     1  UNL1        0.1034
      7 N         142.9120  137.5779  160.9876 N.3     1  UNL1       -0.2928
      8 H         143.1103  137.4627  159.9937 H       1  UNL1        0.1236
      9 C         144.1477  138.1554  161.6117 C.3     1  UNL1        0.0972
     10 C         144.0300  139.2133  162.6685 C.ar    1  UNL1        0.0135
     11 C         144.2249  140.6567  162.3098 C.ar    1  UNL1        0.0955
     12 N         144.1072  141.7146  163.3667 N.ar    1  UNL1       -0.2477
     13 C         143.7945  141.3291  164.7822 C.ar    1  UNL1        0.0689
     14 C         143.6768  142.3871  165.8390 C.3     1  UNL1        0.0528
     15 C         143.5996  139.8858  165.1409 C.ar    1  UNL1        0.0817
     16 C         143.7173  138.8278  164.0839 C.ar    1  UNL1        0.0101
     17 C         143.2869  139.5003  166.5563 C.1     1  UNL1        0.1016
     18 N         142.9742  139.1148  167.9719 N.1     1  UNL1       -0.1908
     19 O         140.9162  136.8151  163.0935 O.3     1  UNL1       -0.3508
     20 C         140.7384  137.0194  164.5689 C.3     1  UNL1        0.1741
     21 C         137.6966  140.5179  161.3835 C.3     1  UNL1        0.0970
     22 C         137.2410  141.0624  162.7048 C.3     1  UNL1        0.1264
     23 C         138.6593  139.3525  166.6182 C.ar    1  UNL1        0.1593
     24 C         139.6109  140.1321  167.4764 C.ar    1  UNL1        0.1357
     25 N         140.0897  141.4818  167.0302 N.ar    1  UNL1       -0.2392
     26 C         139.6170  142.0518  165.7257 C.ar    1  UNL1        0.0975
     27 C         140.0958  143.4015  165.2795 C.ar    1  UNL1        0.0255
     28 C         139.6231  143.9714  163.9751 C.ar    1  UNL1        0.0623
     29 C         138.6714  143.1918  163.1168 C.ar    1  UNL1        0.2611
     30 O         138.1987  143.7617  161.8124 O.2     1  UNL1       -0.2670
     31 N         138.1926  141.8421  163.5630 N.ar    1  UNL1       -0.2926
     32 C         138.6654  141.2721  164.8676 C.ar    1  UNL1        0.0832
     33 C         138.1866  139.9224  165.3138 C.ar    1  UNL1        0.0573
     34 C         136.8271  137.8578  167.6948 C.3     1  UNL1        0.2525
     35 O         138.1805  138.0028  167.0644 O.3     1  UNL1       -0.4698
@<TRIPOS>BOND
     1    34    35    1
     2    35    23    1
     3    23    24   ar
     4    24    25   ar
     5    25    26   ar
     6    26    27   ar
     7    27    28   ar
     8    28    29   ar
     9    29    30    2
    10    29    31   ar
    11    31    22    1
    12    22    21    1
    13    21     1    1
    14     1     2    1
    15     2     3    1
    16     3     4    1
    17     4     7    1
    18     7     9    1
    19     9    10    1
    20    10    11   ar
    21    11    12   ar
    22    12    13   ar
    23    13    14    1
    24    13    15   ar
    25    15    17    1
    26    17    18    3
    27    15    16   ar
    28     4     5    1
    29     5    19    1
    30    19    20    1
    31     5     6    1
    32    31    32   ar
    33    32    33   ar
    34    33    23   ar
    35    32    26   ar
    36     6     1    1
    37    16    10   ar
    38     7     8    1
@<TRIPOS>MOLECULE
*****
 35 38 0 0 0
SMALL
GASTEIGER

@<TRIPOS>ATOM
      1 N         142.5759  142.4034  164.1697 N.3     1  UNL1       -0.2689
      2 C         142.6958  142.4385  162.6749 C.3     1  UNL1        0.0737
      3 C         143.3665  141.3097  161.9497 C.3     1  UNL1        0.0356
      4 C         143.9173  140.1459  162.7192 C.3     1  UNL1        0.0845
      5 C         143.7974  140.1109  164.2140 C.3     1  UNL1        0.1455
      6 C         143.1267  141.2396  164.9392 C.3     1  UNL1        0.1034
      7 N         144.5880  139.0171  161.9939 N.3     1  UNL1       -0.2928
      8 H         145.2758  138.6223  162.6354 H       1  UNL1        0.1236
      9 C         143.7729  137.8704  161.4737 C.3     1  UNL1        0.0972
     10 C         142.2752  137.9251  161.5373 C.ar    1  UNL1        0.0135
     11 C         141.5551  137.3829  162.7362 C.ar    1  UNL1        0.0955
     12 N         140.0575  137.4376  162.7998 N.ar    1  UNL1       -0.2477
     13 C         139.2799  138.0345  161.6644 C.ar    1  UNL1        0.0689
     14 C         137.7823  138.0891  161.7279 C.3     1  UNL1        0.0528
     15 C         140.0000  138.5766  160.4654 C.ar    1  UNL1        0.0817
     16 C         141.4977  138.5219  160.4018 C.ar    1  UNL1        0.0101
     17 C         139.2225  139.1734  159.3299 C.1     1  UNL1        0.1016
     18 N         138.4449  139.7702  158.1944 N.1     1  UNL1       -0.1908
     19 O         144.3482  138.9470  164.9835 O.3     1  UNL1       -0.3508
     20 C         143.5233  138.2989  166.0556 C.3     1  UNL1        0.1741
     21 C         141.9052  143.5323  164.8950 C.3     1  UNL1        0.0970
     22 C         140.4707  143.4067  165.3150 C.3     1  UNL1        0.1264
     23 C         140.7768  142.0440  169.5927 C.ar    1  UNL1        0.1593
     24 C         140.2274  140.7075  169.9952 C.ar    1  UNL1        0.1357
     25 N         139.5760  139.8253  168.9719 N.ar    1  UNL1       -0.2392
     26 C         139.4739  140.2795  167.5460 C.ar    1  UNL1        0.0975
     27 C         138.8225  139.3973  166.5226 C.ar    1  UNL1        0.0255
     28 C         138.7204  139.8515  165.0967 C.ar    1  UNL1        0.0623
     29 C         139.2698  141.1880  164.6941 C.ar    1  UNL1        0.2611
     30 O         139.1678  141.6422  163.2682 O.2     1  UNL1       -0.2670
     31 N         139.9213  142.0702  165.7175 N.ar    1  UNL1       -0.2926
     32 C         140.0233  141.6160  167.1434 C.ar    1  UNL1        0.0832
     33 C         140.6748  142.4982  168.1668 C.ar    1  UNL1        0.0573
     34 C         142.9122  143.1424  170.5844 C.3     1  UNL1        0.2525
     35 O         141.4282  142.9262  170.6161 O.3     1  UNL1       -0.4698
@<TRIPOS>BOND
     1    34    35    1
     2    35    23    1
     3    23    24   ar
     4    24    25   ar
     5    25    26   ar
     6    26    27   ar
     7    27    28   ar
     8    28    29   ar
     9    29    30    2
    10    29    31   ar
    11    31    22    1
    12    22    21    1
    13    21     1    1
    14     1     2    1
    15     2     3    1
    16     3     4    1
    17     4     7    1
    18     7     9    1
    19     9    10    1
    20    10    11   ar
    21    11    12   ar
    22    12    13   ar
    23    13    14    1
    24    13    15   ar
    25    15    17    1
    26    17    18    3
    27    15    16   ar
    28     4     5    1
    29     5    19    1
    30    19    20    1
    31     5     6    1
    32    31    32   ar
    33    32    33   ar
    34    33    23   ar
    35    32    26   ar
    36     6     1    1
    37    16    10   ar
    38     7     8    1
@<TRIPOS>MOLECULE
*****
 35 38 0 0 0
SMALL
GASTEIGER

@<TRIPOS>ATOM
      1 N         143.3914  143.4368  163.0262 N.3     1  UNL1       -0.2689
      2 C         142.8240  143.2400  164.4007 C.3     1  UNL1        0.0737
      3 C         141.4681  143.7860  164.7376 C.3     1  UNL1        0.0356
      4 C         140.6797  144.5287  163.7000 C.3     1  UNL1        0.0845
      5 C         141.2471  144.7255  162.3255 C.3     1  UNL1        0.1455
      6 C         142.6030  144.1796  161.9886 C.3     1  UNL1        0.1034
      7 N         139.3237  145.0747  164.0368 N.3     1  UNL1       -0.2928
      8 H         139.3188  146.0519  163.7445 H       1  UNL1        0.1236
      9 C         138.0947  144.4422  163.4543 C.3     1  UNL1        0.0972
     10 C         138.0789  142.9733  163.1511 C.ar    1  UNL1        0.0135
     11 C         138.0028  142.5017  161.7292 C.ar    1  UNL1        0.0955
     12 N         137.9870  141.0328  161.4260 N.ar    1  UNL1       -0.2477
     13 C         138.0475  140.0354  162.5448 C.ar    1  UNL1        0.0689
     14 C         138.0317  138.5664  162.2416 C.3     1  UNL1        0.0528
     15 C         138.1236  140.5069  163.9667 C.ar    1  UNL1        0.0817
     16 C         138.1393  141.9759  164.2698 C.ar    1  UNL1        0.0101
     17 C         138.1840  139.5096  165.0854 C.1     1  UNL1        0.1016
     18 N         138.2445  138.5122  166.2042 N.1     1  UNL1       -0.1908
     19 O         140.4586  145.4683  161.2878 O.3     1  UNL1       -0.3508
     20 C         140.8422  145.3690  159.8411 C.3     1  UNL1        0.1741
     21 C         144.7473  142.8909  162.6893 C.3     1  UNL1        0.0970
     22 C         144.9376  141.4139  162.5093 C.3     1  UNL1        0.1264
     23 C         142.8926  138.6615  165.4234 C.ar    1  UNL1        0.1593
     24 C         141.7459  137.8073  164.9701 C.ar    1  UNL1        0.1357
     25 N         141.2809  137.8706  163.5454 N.ar    1  UNL1       -0.2392
     26 C         141.9626  138.7880  162.5740 C.ar    1  UNL1        0.0975
     27 C         141.4976  138.8513  161.1493 C.ar    1  UNL1        0.0255
     28 C         142.1793  139.7688  160.1780 C.ar    1  UNL1        0.0623
     29 C         143.3260  140.6230  160.6313 C.ar    1  UNL1        0.2611
     30 O         144.0076  141.5405  159.6599 O.2     1  UNL1       -0.2670
     31 N         143.7910  140.5597  162.0560 N.ar    1  UNL1       -0.2926
     32 C         143.1092  139.6422  163.0274 C.ar    1  UNL1        0.0832
     33 C         143.5742  139.5789  164.4521 C.ar    1  UNL1        0.0573
     34 C         142.6554  139.4013  167.9026 C.3     1  UNL1        0.2525
     35 O         143.3575  138.5982  166.8481 O.3     1  UNL1       -0.4698
@<TRIPOS>BOND
     1    34    35    1
     2    35    23    1
     3    23    24   ar
     4    24    25   ar
     5    25    26   ar
     6    26    27   ar
     7    27    28   ar
     8    28    29   ar
     9    29    30    2
    10    29    31   ar
    11    31    22    1
    12    22    21    1
    13    21     1    1
    14     1     2    1
    15     2     3    1
    16     3     4    1
    17     4     7    1
    18     7     9    1
    19     9    10    1
    20    10    11   ar
    21    11    12   ar
    22    12    13   ar
    23    13    14    1
    24    13    15   ar
    25    15    17    1
    26    17    18    3
    27    15    16   ar
    28     4     5    1
    29     5    19    1
    30    19    20    1
    31     5     6    1
    32    31    32   ar
    33    32    33   ar
    34    33    23   ar
    35    32    26   ar
    36     6     1    1
    37    16    10   ar
    38     7     8    1
