@<TRIPOS>MOLECULE
*****
 34 37 0 0 0
SMALL
GASTEIGER

@<TRIPOS>ATOM
      1 N         142.2150  143.4687  161.7532 N.3     1  UNL1       -0.2685
      2 C         142.9221  144.0452  162.9438 C.3     1  UNL1        0.1035
      3 C         143.1251  143.2095  164.1727 C.3     1  UNL1        0.1470
      4 C         143.3281  142.3738  165.4018 C.3     1  UNL1        0.1035
      5 N         142.8240  140.9616  165.4401 N.3     1  UNL1       -0.2682
      6 C         142.1168  140.3851  164.2494 C.3     1  UNL1        0.1035
      7 C         141.9139  141.2208  163.0205 C.3     1  UNL1        0.1470
      8 C         141.7109  142.0564  161.7915 C.3     1  UNL1        0.1035
      9 O         142.6210  141.7973  164.2111 O.3     1  UNL1       -0.3530
     10 C         142.0120  144.3044  160.5241 C.3     1  UNL1        0.0737
     11 C         140.7003  144.9949  160.2950 C.3     1  UNL1        0.0362
     12 C         140.1167  145.8704  161.3642 C.3     1  UNL1        0.0929
     13 N         138.8066  145.5076  161.9983 N.3     1  UNL1       -0.1793
     14 H         138.5582  146.2761  162.6213 H       1  UNL1        0.1488
     15 S         138.6850  144.2449  162.7986 S.O2    1  UNL1        0.0602
     16 O         139.5253  144.8512  163.8831 O.2     1  UNL1       -0.1530
     17 O         137.8446  143.6385  161.7142 O.2     1  UNL1       -0.1530
     18 C         138.3198  140.4563  165.1994 C.ar    1  UNL1        0.0685
     19 C         139.1202  141.6077  165.7322 C.ar    1  UNL1        0.0116
     20 C         139.2419  142.8705  164.9319 C.ar    1  UNL1        0.0206
     21 C         138.5633  142.9820  163.5989 C.ar    1  UNL1        0.1220
     22 C         137.7629  141.8307  163.0662 C.ar    1  UNL1        0.0206
     23 C         137.6412  140.5678  163.8664 C.ar    1  UNL1        0.0116
     24 N         138.0765  137.9307  166.8000 N.1     1  UNL1       -0.1908
     25 C         138.1981  139.1935  165.9997 C.1     1  UNL1        0.1004
     26 C         143.0270  140.1259  166.6691 C.3     1  UNL1        0.0769
     27 C         141.8431  139.6656  167.4671 C.3     1  UNL1        0.0437
     28 C         141.1641  140.6099  168.4142 C.ar    1  UNL1       -0.0206
     29 C         139.9068  140.1919  169.1173 C.ar    1  UNL1       -0.0019
     30 C         139.2277  141.1362  170.0646 C.ar    1  UNL1        0.0293
     31 C         139.8060  142.4985  170.3087 C.ar    1  UNL1        0.1401
     32 F         139.1270  143.4428  171.2559 F       1  UNL1       -0.2042
     33 C         141.0634  142.9166  169.6055 C.ar    1  UNL1        0.0293
     34 C         141.7424  141.9723  168.6583 C.ar    1  UNL1       -0.0019
@<TRIPOS>BOND
     1    24    25    3
     2    25    18    1
     3    18    19   ar
     4    19    20   ar
     5    20    21   ar
     6    21    15    1
     7    15    16    2
     8    15    17    2
     9    15    13    1
    10    13    12    1
    11    12    11    1
    12    11    10    1
    13    10     1    1
    14     1     2    1
    15     2     3    1
    16     3     4    1
    17     4     5    1
    18     5    26    1
    19    26    27    1
    20    27    28    1
    21    28    29   ar
    22    29    30   ar
    23    30    31   ar
    24    31    32    1
    25    31    33   ar
    26    33    34   ar
    27     5     6    1
    28     6     7    1
    29     7     8    1
    30     7     9    1
    31    21    22   ar
    32    22    23   ar
    33    23    18   ar
    34     8     1    1
    35     9     3    1
    36    34    28   ar
    37    13    14    1
@<TRIPOS>MOLECULE
*****
 34 37 0 0 0
SMALL
GASTEIGER

@<TRIPOS>ATOM
      1 N         142.2647  142.4732  160.9142 N.3     1  UNL1       -0.2685
      2 C         141.4631  141.2055  160.9316 C.3     1  UNL1        0.1035
      3 C         141.4199  140.3625  162.1715 C.3     1  UNL1        0.1470
      4 C         141.3767  139.5194  163.4114 C.3     1  UNL1        0.1035
      5 N         142.1350  139.9441  164.6340 N.3     1  UNL1       -0.2682
      6 C         142.9366  141.2119  164.6165 C.3     1  UNL1        0.1035
      7 C         142.9798  142.0549  163.3767 C.3     1  UNL1        0.1470
      8 C         143.0230  142.8979  162.1368 C.3     1  UNL1        0.1035
      9 O         142.1783  140.7872  163.3940 O.3     1  UNL1       -0.3530
     10 C         142.3079  143.3164  159.6743 C.3     1  UNL1        0.0737
     11 C         141.3448  144.4540  159.5070 C.3     1  UNL1        0.0362
     12 C         140.8464  145.1980  160.7104 C.3     1  UNL1        0.0929
     13 N         139.4489  144.9721  161.2063 N.3     1  UNL1       -0.1793
     14 H         139.1478  145.8424  161.6449 H       1  UNL1        0.1488
     15 S         139.1701  143.8731  162.1883 S.O2    1  UNL1        0.0602
     16 O         138.2038  143.2548  161.2219 O.2     1  UNL1       -0.1530
     17 O         140.1364  144.4915  163.1547 O.2     1  UNL1       -0.1530
     18 C         138.3336  140.5762  165.1345 C.ar    1  UNL1        0.0685
     19 C         139.1765  141.7487  165.5404 C.ar    1  UNL1        0.0116
     20 C         139.4553  142.8477  164.5584 C.ar    1  UNL1        0.0206
     21 C         138.8913  142.7741  163.1704 C.ar    1  UNL1        0.1220
     22 C         138.0485  141.6016  162.7645 C.ar    1  UNL1        0.0206
     23 C         137.7696  140.5026  163.7466 C.ar    1  UNL1        0.0116
     24 N         137.7760  138.3783  167.0988 N.1     1  UNL1       -0.1908
     25 C         138.0548  139.4772  166.1167 C.1     1  UNL1        0.1004
     26 C         142.0918  139.1010  165.8739 C.3     1  UNL1        0.0769
     27 C         142.6390  139.6360  167.1640 C.3     1  UNL1        0.0437
     28 C         141.7713  140.4721  168.0573 C.ar    1  UNL1       -0.0206
     29 C         140.5938  139.8542  168.7513 C.ar    1  UNL1       -0.0019
     30 C         139.7260  140.6903  169.6446 C.ar    1  UNL1        0.0293
     31 C         140.0358  142.1443  169.8439 C.ar    1  UNL1        0.1401
     32 F         139.1681  142.9804  170.7372 F       1  UNL1       -0.2042
     33 C         141.2134  142.7623  169.1499 C.ar    1  UNL1        0.0293
     34 C         142.0811  141.9262  168.2566 C.ar    1  UNL1       -0.0019
@<TRIPOS>BOND
     1    24    25    3
     2    25    18    1
     3    18    19   ar
     4    19    20   ar
     5    20    21   ar
     6    21    15    1
     7    15    16    2
     8    15    17    2
     9    15    13    1
    10    13    12    1
    11    12    11    1
    12    11    10    1
    13    10     1    1
    14     1     2    1
    15     2     3    1
    16     3     4    1
    17     4     5    1
    18     5    26    1
    19    26    27    1
    20    27    28    1
    21    28    29   ar
    22    29    30   ar
    23    30    31   ar
    24    31    32    1
    25    31    33   ar
    26    33    34   ar
    27     5     6    1
    28     6     7    1
    29     7     8    1
    30     7     9    1
    31    21    22   ar
    32    22    23   ar
    33    23    18   ar
    34     8     1    1
    35     9     3    1
    36    34    28   ar
    37    13    14    1
@<TRIPOS>MOLECULE
*****
 34 37 0 0 0
SMALL
GASTEIGER

@<TRIPOS>ATOM
      1 N         140.2679  139.3718  159.3580 N.3     1  UNL1       -0.2685
      2 C         140.4265  140.6715  160.0898 C.3     1  UNL1        0.1035
      3 C         139.8834  140.8205  161.4800 C.3     1  UNL1        0.1470
      4 C         139.3403  140.9695  162.8704 C.3     1  UNL1        0.1035
      5 N         138.6385  139.8188  163.5287 N.3     1  UNL1       -0.2682
      6 C         138.4799  138.5191  162.7968 C.3     1  UNL1        0.1035
      7 C         139.0230  138.3701  161.4066 C.3     1  UNL1        0.1470
      8 C         139.5661  138.2212  160.0164 C.3     1  UNL1        0.1035
      9 O         139.1817  139.6698  162.1384 O.3     1  UNL1       -0.3530
     10 C         140.8110  139.2228  157.9677 C.3     1  UNL1        0.0737
     11 C         141.7798  138.1212  157.6550 C.3     1  UNL1        0.0362
     12 C         142.8112  137.7196  158.6675 C.3     1  UNL1        0.0929
     13 N         143.5506  138.7700  159.4421 N.3     1  UNL1       -0.1793
     14 H         144.5385  138.6661  159.2103 H       1  UNL1        0.1488
     15 S         143.4581  138.8024  160.9388 S.O2    1  UNL1        0.0602
     16 O         143.9931  140.2037  160.9416 O.2     1  UNL1       -0.1530
     17 O         142.9231  137.4011  160.9361 O.2     1  UNL1       -0.1530
     18 C         143.1805  138.8994  165.4292 C.ar    1  UNL1        0.0685
     19 C         144.3490  139.5351  164.7361 C.ar    1  UNL1        0.0116
     20 C         144.4416  139.5028  163.2393 C.ar    1  UNL1        0.0206
     21 C         143.3656  138.8348  162.4357 C.ar    1  UNL1        0.1220
     22 C         142.1971  138.1990  163.1287 C.ar    1  UNL1        0.0206
     23 C         142.1045  138.2313  164.6255 C.ar    1  UNL1        0.0116
     24 N         142.9954  138.9640  168.4228 N.1     1  UNL1       -0.1908
     25 C         143.0879  138.9317  166.9260 C.1     1  UNL1        0.1004
     26 C         138.0954  139.9678  164.9190 C.3     1  UNL1        0.0769
     27 C         138.8589  139.4147  166.0857 C.3     1  UNL1        0.0437
     28 C         139.5868  140.3420  167.0132 C.ar    1  UNL1       -0.0206
     29 C         140.3919  141.4790  166.4575 C.ar    1  UNL1       -0.0019
     30 C         141.1199  142.4063  167.3850 C.ar    1  UNL1        0.0293
     31 C         141.0427  142.1966  168.8682 C.ar    1  UNL1        0.1401
     32 F         141.7706  143.1238  169.7957 F       1  UNL1       -0.2042
     33 C         140.2375  141.0595  169.4240 C.ar    1  UNL1        0.0293
     34 C         139.5096  140.1322  168.4965 C.ar    1  UNL1       -0.0019
@<TRIPOS>BOND
     1    24    25    3
     2    25    18    1
     3    18    19   ar
     4    19    20   ar
     5    20    21   ar
     6    21    15    1
     7    15    16    2
     8    15    17    2
     9    15    13    1
    10    13    12    1
    11    12    11    1
    12    11    10    1
    13    10     1    1
    14     1     2    1
    15     2     3    1
    16     3     4    1
    17     4     5    1
    18     5    26    1
    19    26    27    1
    20    27    28    1
    21    28    29   ar
    22    29    30   ar
    23    30    31   ar
    24    31    32    1
    25    31    33   ar
    26    33    34   ar
    27     5     6    1
    28     6     7    1
    29     7     8    1
    30     7     9    1
    31    21    22   ar
    32    22    23   ar
    33    23    18   ar
    34     8     1    1
    35     9     3    1
    36    34    28   ar
    37    13    14    1
@<TRIPOS>MOLECULE
*****
 34 37 0 0 0
SMALL
GASTEIGER

@<TRIPOS>ATOM
      1 N         141.7651  139.3580  161.1156 N.3     1  UNL1       -0.2685
      2 C         142.0801  138.0713  161.8193 C.3     1  UNL1        0.1035
      3 C         142.2477  138.0533  163.3098 C.3     1  UNL1        0.1470
      4 C         142.4154  138.0352  164.8004 C.3     1  UNL1        0.1035
      5 N         142.2681  139.3039  165.5871 N.3     1  UNL1       -0.2682
      6 C         141.9531  140.5905  164.8832 C.3     1  UNL1        0.1035
      7 C         141.7855  140.6086  163.3928 C.3     1  UNL1        0.1470
      8 C         141.6178  140.6266  161.9023 C.3     1  UNL1        0.1035
      9 O         142.1004  139.3219  164.0965 O.3     1  UNL1       -0.3530
     10 C         141.5975  139.3761  159.6251 C.3     1  UNL1        0.0737
     11 C         140.4212  140.0756  159.0111 C.3     1  UNL1        0.0362
     12 C         139.1344  139.3343  158.7994 C.3     1  UNL1        0.0929
     13 N         137.9478  139.6282  159.6686 N.3     1  UNL1       -0.1793
     14 H         137.6236  140.5624  159.4183 H       1  UNL1        0.1488
     15 S         138.0877  139.6042  161.1619 S.O2    1  UNL1        0.0602
     16 O         137.6740  141.0446  161.2238 O.2     1  UNL1       -0.1530
     17 O         138.5014  138.1637  161.0999 O.2     1  UNL1       -0.1530
     18 C         138.5075  139.5317  165.6417 C.ar    1  UNL1        0.0685
     19 C         138.1187  140.8021  164.9452 C.ar    1  UNL1        0.0116
     20 C         137.9787  140.8263  163.4520 C.ar    1  UNL1        0.0206
     21 C         138.2277  139.5801  162.6552 C.ar    1  UNL1        0.1220
     22 C         138.6166  138.3097  163.3516 C.ar    1  UNL1        0.0206
     23 C         138.7565  138.2856  164.8448 C.ar    1  UNL1        0.0116
     24 N         138.7873  139.4835  168.6282 N.1     1  UNL1       -0.1908
     25 C         138.6475  139.5076  167.1350 C.1     1  UNL1        0.1004
     26 C         142.4357  139.2858  167.0775 C.3     1  UNL1        0.0769
     27 C         142.8962  140.5198  167.7955 C.3     1  UNL1        0.0437
     28 C         141.9454  141.2731  168.6777 C.ar    1  UNL1       -0.0206
     29 C         141.2322  142.4830  168.1510 C.ar    1  UNL1       -0.0019
     30 C         140.2813  143.2363  169.0333 C.ar    1  UNL1        0.0293
     31 C         140.0437  142.7797  170.4422 C.ar    1  UNL1        0.1401
     32 F         139.0928  143.5330  171.3245 F       1  UNL1       -0.2042
     33 C         140.7569  141.5698  170.9689 C.ar    1  UNL1        0.0293
     34 C         141.7078  140.8165  170.0866 C.ar    1  UNL1       -0.0019
@<TRIPOS>BOND
     1    24    25    3
     2    25    18    1
     3    18    19   ar
     4    19    20   ar
     5    20    21   ar
     6    21    15    1
     7    15    16    2
     8    15    17    2
     9    15    13    1
    10    13    12    1
    11    12    11    1
    12    11    10    1
    13    10     1    1
    14     1     2    1
    15     2     3    1
    16     3     4    1
    17     4     5    1
    18     5    26    1
    19    26    27    1
    20    27    28    1
    21    28    29   ar
    22    29    30   ar
    23    30    31   ar
    24    31    32    1
    25    31    33   ar
    26    33    34   ar
    27     5     6    1
    28     6     7    1
    29     7     8    1
    30     7     9    1
    31    21    22   ar
    32    22    23   ar
    33    23    18   ar
    34     8     1    1
    35     9     3    1
    36    34    28   ar
    37    13    14    1
@<TRIPOS>MOLECULE
*****
 34 37 0 0 0
SMALL
GASTEIGER

@<TRIPOS>ATOM
      1 N         143.2535  138.6790  159.4644 N.3     1  UNL1       -0.2685
      2 C         143.4580  138.0668  160.8184 C.3     1  UNL1        0.1035
      3 C         143.9842  138.9024  161.9475 C.3     1  UNL1        0.1470
      4 C         144.5105  139.7380  163.0766 C.3     1  UNL1        0.1035
      5 N         144.8322  141.1857  162.8517 N.3     1  UNL1       -0.2682
      6 C         144.6277  141.7979  161.4976 C.3     1  UNL1        0.1035
      7 C         144.1015  140.9623  160.3685 C.3     1  UNL1        0.1470
      8 C         143.5753  140.1267  159.2394 C.3     1  UNL1        0.1035
      9 O         144.3059  140.3501  161.7225 O.3     1  UNL1       -0.3530
     10 C         142.7273  137.8434  158.3352 C.3     1  UNL1        0.0737
     11 C         141.4009  138.1699  157.7154 C.3     1  UNL1        0.0362
     12 C         140.2038  138.4076  158.5875 C.3     1  UNL1        0.0929
     13 N         140.1694  139.5917  159.5076 N.3     1  UNL1       -0.1793
     14 H         141.1155  139.9720  159.5335 H       1  UNL1        0.1488
     15 S         139.7318  139.4220  160.9323 S.O2    1  UNL1        0.0602
     16 O         140.5437  140.6207  161.3245 O.2     1  UNL1       -0.1530
     17 O         138.9199  138.2233  160.5400 O.2     1  UNL1       -0.1530
     18 C         138.4188  138.9126  165.2062 C.ar    1  UNL1        0.0685
     19 C         138.2596  140.2399  164.5258 C.ar    1  UNL1        0.0116
     20 C         138.6973  140.4097  163.1012 C.ar    1  UNL1        0.0206
     21 C         139.2941  139.2522  162.3570 C.ar    1  UNL1        0.1220
     22 C         139.4533  137.9249  163.0373 C.ar    1  UNL1        0.0206
     23 C         139.0156  137.7551  164.4620 C.ar    1  UNL1        0.0116
     24 N         137.5435  138.5730  168.0555 N.1     1  UNL1       -0.1908
     25 C         137.9811  138.7428  166.6309 C.1     1  UNL1        0.1004
     26 C         145.3584  142.0213  163.9808 C.3     1  UNL1        0.0769
     27 C         144.4257  142.5140  165.0473 C.3     1  UNL1        0.0437
     28 C         143.1788  143.2569  164.6686 C.ar    1  UNL1       -0.0206
     29 C         143.2774  144.6041  164.0165 C.ar    1  UNL1       -0.0019
     30 C         142.0306  145.3471  163.6377 C.ar    1  UNL1        0.0293
     31 C         140.6852  144.7427  163.9110 C.ar    1  UNL1        0.1401
     32 F         139.4384  145.4856  163.5322 F       1  UNL1       -0.2042
     33 C         140.5866  143.3954  164.5631 C.ar    1  UNL1        0.0293
     34 C         141.8334  142.6525  164.9419 C.ar    1  UNL1       -0.0019
@<TRIPOS>BOND
     1    24    25    3
     2    25    18    1
     3    18    19   ar
     4    19    20   ar
     5    20    21   ar
     6    21    15    1
     7    15    16    2
     8    15    17    2
     9    15    13    1
    10    13    12    1
    11    12    11    1
    12    11    10    1
    13    10     1    1
    14     1     2    1
    15     2     3    1
    16     3     4    1
    17     4     5    1
    18     5    26    1
    19    26    27    1
    20    27    28    1
    21    28    29   ar
    22    29    30   ar
    23    30    31   ar
    24    31    32    1
    25    31    33   ar
    26    33    34   ar
    27     5     6    1
    28     6     7    1
    29     7     8    1
    30     7     9    1
    31    21    22   ar
    32    22    23   ar
    33    23    18   ar
    34     8     1    1
    35     9     3    1
    36    34    28   ar
    37    13    14    1
@<TRIPOS>MOLECULE
*****
 34 37 0 0 0
SMALL
GASTEIGER

@<TRIPOS>ATOM
      1 N         138.4188  140.8843  161.4106 N.3     1  UNL1       -0.2685
      2 C         138.2505  141.4589  162.7859 C.3     1  UNL1        0.1035
      3 C         139.0811  142.6318  163.2154 C.3     1  UNL1        0.1470
      4 C         139.9116  143.8047  163.6449 C.3     1  UNL1        0.1035
      5 N         140.9104  144.4030  162.6992 N.3     1  UNL1       -0.2682
      6 C         141.0786  143.8283  161.3238 C.3     1  UNL1        0.1035
      7 C         140.2481  142.6554  160.8943 C.3     1  UNL1        0.1470
      8 C         139.4176  141.4825  160.4648 C.3     1  UNL1        0.1035
      9 O         140.0799  143.2300  162.2696 O.3     1  UNL1       -0.3530
     10 C         137.5882  139.7113  160.9810 C.3     1  UNL1        0.0737
     11 C         137.7052  138.4037  161.7064 C.3     1  UNL1        0.0362
     12 C         139.0443  137.7435  161.8513 C.3     1  UNL1        0.0929
     13 N         140.2705  138.5767  162.0794 N.3     1  UNL1       -0.1793
     14 H         141.0289  138.1325  161.5618 H       1  UNL1        0.1488
     15 S         140.7736  138.8047  163.4740 S.O2    1  UNL1        0.0602
     16 O         140.1044  137.5394  163.9223 O.2     1  UNL1       -0.1530
     17 O         141.4428  140.0701  163.0257 O.2     1  UNL1       -0.1530
     18 C         142.2830  139.4887  167.6578 C.ar    1  UNL1        0.0685
     19 C         141.0394  140.1826  167.1862 C.ar    1  UNL1        0.0116
     20 C         140.5363  139.9546  165.7917 C.ar    1  UNL1        0.0206
     21 C         141.2767  139.0328  164.8686 C.ar    1  UNL1        0.1220
     22 C         142.5202  138.3390  165.3402 C.ar    1  UNL1        0.0206
     23 C         143.0233  138.5669  166.7347 C.ar    1  UNL1        0.0116
     24 N         143.2891  139.9448  170.4470 N.1     1  UNL1       -0.1908
     25 C         142.7861  139.7168  169.0524 C.1     1  UNL1        0.1004
     26 C         141.7410  145.5758  163.1287 C.3     1  UNL1        0.0769
     27 C         143.0209  145.3540  163.8789 C.3     1  UNL1        0.0437
     28 C         143.6233  143.9819  163.9450 C.ar    1  UNL1       -0.0206
     29 C         143.3166  143.0833  165.1062 C.ar    1  UNL1       -0.0019
     30 C         143.9190  141.7112  165.1723 C.ar    1  UNL1        0.0293
     31 C         144.8282  141.2377  164.0772 C.ar    1  UNL1        0.1401
     32 F         145.4306  139.8656  164.1434 F       1  UNL1       -0.2042
     33 C         145.1349  142.1363  162.9160 C.ar    1  UNL1        0.0293
     34 C         144.5324  143.5084  162.8499 C.ar    1  UNL1       -0.0019
@<TRIPOS>BOND
     1    24    25    3
     2    25    18    1
     3    18    19   ar
     4    19    20   ar
     5    20    21   ar
     6    21    15    1
     7    15    16    2
     8    15    17    2
     9    15    13    1
    10    13    12    1
    11    12    11    1
    12    11    10    1
    13    10     1    1
    14     1     2    1
    15     2     3    1
    16     3     4    1
    17     4     5    1
    18     5    26    1
    19    26    27    1
    20    27    28    1
    21    28    29   ar
    22    29    30   ar
    23    30    31   ar
    24    31    32    1
    25    31    33   ar
    26    33    34   ar
    27     5     6    1
    28     6     7    1
    29     7     8    1
    30     7     9    1
    31    21    22   ar
    32    22    23   ar
    33    23    18   ar
    34     8     1    1
    35     9     3    1
    36    34    28   ar
    37    13    14    1
@<TRIPOS>MOLECULE
*****
 34 37 0 0 0
SMALL
GASTEIGER

@<TRIPOS>ATOM
      1 N         139.1269  142.2321  161.0958 N.3     1  UNL1       -0.2685
      2 C         139.8803  140.9387  161.1928 C.3     1  UNL1        0.1035
      3 C         139.9001  140.1775  162.4851 C.3     1  UNL1        0.1470
      4 C         139.9200  139.4162  163.7775 C.3     1  UNL1        0.1035
      5 N         139.1865  139.9485  164.9728 N.3     1  UNL1       -0.2682
      6 C         138.4331  141.2420  164.8757 C.3     1  UNL1        0.1035
      7 C         138.4132  142.0032  163.5833 C.3     1  UNL1        0.1470
      8 C         138.3934  142.7643  162.2910 C.3     1  UNL1        0.1035
      9 O         139.1666  140.7097  163.6804 O.3     1  UNL1       -0.3530
     10 C         139.1071  142.9934  159.8034 C.3     1  UNL1        0.0737
     11 C         140.2237  143.9388  159.4726 C.3     1  UNL1        0.0362
     12 C         140.7018  144.9231  160.4986 C.3     1  UNL1        0.0929
     13 N         142.0842  144.8012  161.0678 N.3     1  UNL1       -0.1793
     14 H         142.7241  144.7377  160.2760 H       1  UNL1        0.1488
     15 S         142.4191  143.6646  161.9874 S.O2    1  UNL1        0.0602
     16 O         143.3226  143.0837  160.9405 O.2     1  UNL1       -0.1530
     17 O         141.5155  144.2454  163.0344 O.2     1  UNL1       -0.1530
     18 C         143.4235  140.2546  164.7466 C.ar    1  UNL1        0.0685
     19 C         143.9276  140.2497  163.3339 C.ar    1  UNL1        0.0116
     20 C         143.5928  141.3863  162.4142 C.ar    1  UNL1        0.0206
     21 C         142.7539  142.5278  162.9072 C.ar    1  UNL1        0.1220
     22 C         142.2498  142.5328  164.3199 C.ar    1  UNL1        0.0206
     23 C         142.5846  141.3961  165.2397 C.ar    1  UNL1        0.0116
     24 N         144.0931  137.9813  166.5861 N.1     1  UNL1       -0.1908
     25 C         143.7583  139.1179  165.6664 C.1     1  UNL1        0.1004
     26 C         139.2063  139.1873  166.2651 C.3     1  UNL1        0.0769
     27 C         139.1914  139.9256  167.5708 C.3     1  UNL1        0.0437
     28 C         140.4485  140.5597  168.0881 C.ar    1  UNL1       -0.0206
     29 C         141.5778  139.6995  168.5727 C.ar    1  UNL1       -0.0019
     30 C         142.8349  140.3336  169.0901 C.ar    1  UNL1        0.0293
     31 C         142.9627  141.8278  169.1230 C.ar    1  UNL1        0.1401
     32 F         144.2197  142.4618  169.6404 F       1  UNL1       -0.2042
     33 C         141.8333  142.6879  168.6384 C.ar    1  UNL1        0.0293
     34 C         140.5763  142.0538  168.1210 C.ar    1  UNL1       -0.0019
@<TRIPOS>BOND
     1    24    25    3
     2    25    18    1
     3    18    19   ar
     4    19    20   ar
     5    20    21   ar
     6    21    15    1
     7    15    16    2
     8    15    17    2
     9    15    13    1
    10    13    12    1
    11    12    11    1
    12    11    10    1
    13    10     1    1
    14     1     2    1
    15     2     3    1
    16     3     4    1
    17     4     5    1
    18     5    26    1
    19    26    27    1
    20    27    28    1
    21    28    29   ar
    22    29    30   ar
    23    30    31   ar
    24    31    32    1
    25    31    33   ar
    26    33    34   ar
    27     5     6    1
    28     6     7    1
    29     7     8    1
    30     7     9    1
    31    21    22   ar
    32    22    23   ar
    33    23    18   ar
    34     8     1    1
    35     9     3    1
    36    34    28   ar
    37    13    14    1
@<TRIPOS>MOLECULE
*****
 34 37 0 0 0
SMALL
GASTEIGER

@<TRIPOS>ATOM
      1 N         143.1055  141.0332  160.4187 N.3     1  UNL1       -0.2685
      2 C         144.0038  141.2578  161.5988 C.3     1  UNL1        0.1035
      3 C         143.4349  141.7756  162.8865 C.3     1  UNL1        0.1470
      4 C         142.8661  142.2934  164.1743 C.3     1  UNL1        0.1035
      5 N         141.3990  142.5866  164.2820 N.3     1  UNL1       -0.2682
      6 C         140.5007  142.3621  163.1018 C.3     1  UNL1        0.1035
      7 C         141.0696  141.8443  161.8141 C.3     1  UNL1        0.1470
      8 C         141.6384  141.3265  160.5264 C.3     1  UNL1        0.1035
      9 O         141.9678  142.0688  162.9942 O.3     1  UNL1       -0.3530
     10 C         143.6743  140.5154  159.1309 C.3     1  UNL1        0.0737
     11 C         142.9916  139.3931  158.4070 C.3     1  UNL1        0.0362
     12 C         142.6800  138.1151  159.1281 C.3     1  UNL1        0.0929
     13 N         143.1540  137.9142  160.5370 N.3     1  UNL1       -0.1793
     14 H         143.5849  136.9904  160.5738 H       1  UNL1        0.1488
     15 S         142.1775  137.9821  161.6736 S.O2    1  UNL1        0.0602
     16 O         141.0404  137.8479  160.7047 O.2     1  UNL1       -0.1530
     17 O         143.3147  138.1162  162.6425 O.2     1  UNL1       -0.1530
     18 C         139.2484  138.1857  165.0837 C.ar    1  UNL1        0.0685
     19 C         138.8020  137.6902  163.7401 C.ar    1  UNL1        0.0116
     20 C         139.7784  137.6223  162.6035 C.ar    1  UNL1        0.0206
     21 C         141.2011  138.0499  162.8103 C.ar    1  UNL1        0.1220
     22 C         141.6475  138.5455  164.1539 C.ar    1  UNL1        0.0206
     23 C         140.6712  138.6134  165.2906 C.ar    1  UNL1        0.0116
     24 N         137.2956  138.3215  167.3571 N.1     1  UNL1       -0.1908
     25 C         138.2720  138.2536  166.2204 C.1     1  UNL1        0.1004
     26 C         140.8301  143.1044  165.5697 C.3     1  UNL1        0.0769
     27 C         140.1568  142.1634  166.5243 C.3     1  UNL1        0.0437
     28 C         140.9360  141.5544  167.6521 C.ar    1  UNL1       -0.0206
     29 C         142.3183  142.0482  167.9611 C.ar    1  UNL1       -0.0019
     30 C         143.0975  141.4392  169.0890 C.ar    1  UNL1        0.0293
     31 C         142.4945  140.3364  169.9077 C.ar    1  UNL1        0.1401
     32 F         143.2737  139.7274  171.0355 F       1  UNL1       -0.2042
     33 C         141.1122  139.8427  169.5986 C.ar    1  UNL1        0.0293
     34 C         140.3330  140.4517  168.4708 C.ar    1  UNL1       -0.0019
@<TRIPOS>BOND
     1    24    25    3
     2    25    18    1
     3    18    19   ar
     4    19    20   ar
     5    20    21   ar
     6    21    15    1
     7    15    16    2
     8    15    17    2
     9    15    13    1
    10    13    12    1
    11    12    11    1
    12    11    10    1
    13    10     1    1
    14     1     2    1
    15     2     3    1
    16     3     4    1
    17     4     5    1
    18     5    26    1
    19    26    27    1
    20    27    28    1
    21    28    29   ar
    22    29    30   ar
    23    30    31   ar
    24    31    32    1
    25    31    33   ar
    26    33    34   ar
    27     5     6    1
    28     6     7    1
    29     7     8    1
    30     7     9    1
    31    21    22   ar
    32    22    23   ar
    33    23    18   ar
    34     8     1    1
    35     9     3    1
    36    34    28   ar
    37    13    14    1
@<TRIPOS>MOLECULE
*****
 34 37 0 0 0
SMALL
GASTEIGER

@<TRIPOS>ATOM
      1 N         143.1006  138.8322  159.9302 N.3     1  UNL1       -0.2685
      2 C         143.4205  140.2620  159.6090 C.3     1  UNL1        0.1035
      3 C         144.0366  141.1454  160.6529 C.3     1  UNL1        0.1470
      4 C         144.6528  142.0290  161.6968 C.3     1  UNL1        0.1035
      5 N         144.9490  141.4826  163.0620 N.3     1  UNL1       -0.2682
      6 C         144.6290  140.0527  163.3833 C.3     1  UNL1        0.1035
      7 C         144.0129  139.1693  162.3393 C.3     1  UNL1        0.1470
      8 C         143.3968  138.2858  161.2954 C.3     1  UNL1        0.1035
      9 O         144.3328  140.5991  162.0181 O.3     1  UNL1       -0.3530
     10 C         142.4844  137.9486  158.8863 C.3     1  UNL1        0.0737
     11 C         141.1092  138.2476  158.3672 C.3     1  UNL1        0.0362
     12 C         140.1061  138.9292  159.2500 C.3     1  UNL1        0.0929
     13 N         139.3896  138.1493  160.3123 N.3     1  UNL1       -0.1793
     14 H         138.4038  138.1329  160.0511 H       1  UNL1        0.1488
     15 S         139.4512  138.5981  161.7423 S.O2    1  UNL1        0.0602
     16 O         138.7183  139.8555  161.3792 O.2     1  UNL1       -0.1530
     17 O         140.1841  137.3407  162.1053 O.2     1  UNL1       -0.1530
     18 C         139.6361  139.9443  166.0322 C.ar    1  UNL1        0.0685
     19 C         140.7622  139.1439  165.4481 C.ar    1  UNL1        0.0116
     20 C         140.7006  138.6952  164.0182 C.ar    1  UNL1        0.0206
     21 C         139.5129  139.0468  163.1723 C.ar    1  UNL1        0.1220
     22 C         138.3867  139.8472  163.7564 C.ar    1  UNL1        0.0206
     23 C         138.4483  140.2959  165.1863 C.ar    1  UNL1        0.0116
     24 N         139.7593  140.8418  168.8922 N.1     1  UNL1       -0.1908
     25 C         139.6977  140.3930  167.4622 C.1     1  UNL1        0.1004
     26 C         145.5651  142.3661  164.1060 C.3     1  UNL1        0.0769
     27 C         144.7036  142.9918  165.1626 C.3     1  UNL1        0.0437
     28 C         143.3554  143.5418  164.8023 C.ar    1  UNL1       -0.0206
     29 C         142.1123  142.8144  165.2214 C.ar    1  UNL1       -0.0019
     30 C         140.7640  143.3644  164.8612 C.ar    1  UNL1        0.0293
     31 C         140.6589  144.6417  164.0818 C.ar    1  UNL1        0.1401
     32 F         139.3106  145.1917  163.7216 F       1  UNL1       -0.2042
     33 C         141.9020  145.3691  163.6627 C.ar    1  UNL1        0.0293
     34 C         143.2502  144.8191  164.0229 C.ar    1  UNL1       -0.0019
@<TRIPOS>BOND
     1    24    25    3
     2    25    18    1
     3    18    19   ar
     4    19    20   ar
     5    20    21   ar
     6    21    15    1
     7    15    16    2
     8    15    17    2
     9    15    13    1
    10    13    12    1
    11    12    11    1
    12    11    10    1
    13    10     1    1
    14     1     2    1
    15     2     3    1
    16     3     4    1
    17     4     5    1
    18     5    26    1
    19    26    27    1
    20    27    28    1
    21    28    29   ar
    22    29    30   ar
    23    30    31   ar
    24    31    32    1
    25    31    33   ar
    26    33    34   ar
    27     5     6    1
    28     6     7    1
    29     7     8    1
    30     7     9    1
    31    21    22   ar
    32    22    23   ar
    33    23    18   ar
    34     8     1    1
    35     9     3    1
    36    34    28   ar
    37    13    14    1
