@<TRIPOS>MOLECULE
*****
 35 39 0 0 0
SMALL
GASTEIGER

@<TRIPOS>ATOM
      1 C         144.0132  142.0236  160.9239 C.ar    1  UNL1        0.0967
      2 C         142.7141  142.6390  161.3525 C.ar    1  UNL1        0.0398
      3 C         142.5406  142.3805  162.8198 C.ar    1  UNL1        0.1156
      4 C         141.4513  142.7509  163.7822 C.ar    1  UNL1        0.1497
      5 N         141.5539  142.3460  165.2230 N.ar    1  UNL1       -0.2275
      6 C         142.7456  141.5709  165.7012 C.ar    1  UNL1        0.1049
      7 C         143.8349  141.2005  164.7388 C.ar    1  UNL1        0.1196
      8 N         143.7324  141.6053  163.2981 N.ar    1  UNL1       -0.2242
      9 N         144.6425  141.3847  162.1263 N.ar    1  UNL1       -0.1679
     10 C         142.8481  141.1660  167.1420 C.ar    1  UNL1        0.0576
     11 C         143.0707  142.2063  168.1993 C.ar    1  UNL1        0.1049
     12 N         143.1732  141.8014  169.6401 N.ar    1  UNL1       -0.2124
     13 C         143.0532  140.3562  170.0233 C.ar    1  UNL1        0.2137
     14 N         143.1558  139.9512  171.4639 N.pl3   1  UNL1       -0.3274
     15 N         142.8307  139.3158  168.9658 N.ar    1  UNL1       -0.2124
     16 C         142.7281  139.7208  167.5251 C.ar    1  UNL1        0.1049
     17 H         143.3018  140.6340  172.1580 H       1  UNL1        0.1452
     18 H         143.0770  139.0027  171.7154 H       1  UNL1        0.1452
     19 N         140.2595  143.5261  163.3040 N.pl3   1  UNL1       -0.2869
     20 C         138.9012  142.8898  163.3053 C.3     1  UNL1        0.1243
     21 C         137.7094  143.6651  162.8271 C.3     1  UNL1        0.1636
     22 O         137.8760  145.0766  162.3477 O.3     1  UNL1       -0.3501
     23 C         139.2343  145.7129  162.3464 C.3     1  UNL1        0.1636
     24 C         140.4261  144.9376  162.8246 C.3     1  UNL1        0.1243
     25 C         144.5829  142.0435  159.5365 C.3     1  UNL1        0.1206
     26 N         143.6407  138.7056  156.6692 N.3     1  UNL1       -0.1565
     27 C         143.0854  138.6767  158.0624 C.3     1  UNL1        0.1128
     28 C         143.3995  139.7894  159.0181 C.3     1  UNL1        0.0918
     29 N         144.2688  140.9309  158.5807 N.3     1  UNL1       -0.2651
     30 C         144.8241  140.9596  157.1875 C.3     1  UNL1        0.0918
     31 C         144.5100  139.8470  156.2318 C.3     1  UNL1        0.1128
     32 C         143.0127  136.4804  154.7577 C.3     1  UNL1        0.1960
     33 S         143.3266  137.5930  155.7135 S.O2    1  UNL1        0.0457
     34 O         141.8647  137.9097  155.8251 O.2     1  UNL1       -0.1572
     35 O         144.7885  137.2762  155.6019 O.2     1  UNL1       -0.1572
@<TRIPOS>BOND
     1    32    33    1
     2    33    34    2
     3    33    35    2
     4    33    26    1
     5    26    27    1
     6    27    28    1
     7    28    29    1
     8    29    25    1
     9    25     1    1
    10     1     2   ar
    11     2     3   ar
    12     3     4   ar
    13     4    19    1
    14    19    20    1
    15    20    21    1
    16    21    22    1
    17    22    23    1
    18    23    24    1
    19     4     5   ar
    20     5     6   ar
    21     6    10    1
    22    10    11   ar
    23    11    12   ar
    24    12    13   ar
    25    13    14    1
    26    13    15   ar
    27    15    16   ar
    28     6     7   ar
    29     7     8   ar
    30     8     9   ar
    31    29    30    1
    32    30    31    1
    33    31    26    1
    34     9     1   ar
    35     8     3   ar
    36    24    19    1
    37    16    10   ar
    38    14    17    1
    39    14    18    1
@<TRIPOS>MOLECULE
*****
 35 39 0 0 0
SMALL
GASTEIGER

@<TRIPOS>ATOM
      1 C         143.6444  141.0955  160.7565 C.ar    1  UNL1        0.0967
      2 C         142.5512  142.0295  161.1838 C.ar    1  UNL1        0.0398
      3 C         142.4166  141.9341  162.6747 C.ar    1  UNL1        0.1156
      4 C         141.5048  142.6232  163.6462 C.ar    1  UNL1        0.1497
      5 N         141.6029  142.3192  165.1118 N.ar    1  UNL1       -0.2275
      6 C         142.6128  141.3263  165.6059 C.ar    1  UNL1        0.1049
      7 C         143.5246  140.6373  164.6344 C.ar    1  UNL1        0.1196
      8 N         143.4265  140.9412  163.1688 N.ar    1  UNL1       -0.2242
      9 N         144.1853  140.4228  161.9833 N.ar    1  UNL1       -0.1679
     10 C         142.7110  141.0224  167.0716 C.ar    1  UNL1        0.0576
     11 C         142.6015  139.6060  167.5528 C.ar    1  UNL1        0.1049
     12 N         142.6997  139.3020  169.0184 N.ar    1  UNL1       -0.2124
     13 C         142.9073  140.4146  170.0028 C.ar    1  UNL1        0.2137
     14 N         143.0055  140.1108  171.4684 N.pl3   1  UNL1       -0.3274
     15 N         143.0168  141.8311  169.5215 N.ar    1  UNL1       -0.2124
     16 C         142.9186  142.1350  168.0559 C.ar    1  UNL1        0.1049
     17 H         142.9336  139.1811  171.7842 H       1  UNL1        0.1452
     18 H         143.1418  140.8410  172.1144 H       1  UNL1        0.1452
     19 N         140.4948  143.6161  163.1521 N.pl3   1  UNL1       -0.2869
     20 C         139.0300  143.3502  163.3351 C.3     1  UNL1        0.1243
     21 C         138.0201  144.3433  162.8411 C.3     1  UNL1        0.1636
     22 O         138.4751  145.6021  162.1641 O.3     1  UNL1       -0.3501
     23 C         139.9399  145.8680  161.9811 C.3     1  UNL1        0.1636
     24 C         140.9498  144.8749  162.4751 C.3     1  UNL1        0.1243
     25 C         144.1142  140.8731  159.3494 C.3     1  UNL1        0.1206
     26 N         142.7555  137.2376  157.0718 N.3     1  UNL1       -0.1565
     27 C         142.5983  137.2907  158.5626 C.3     1  UNL1        0.1128
     28 C         143.0513  138.5026  159.3218 C.3     1  UNL1        0.0918
     29 N         143.6613  139.6613  158.5902 N.3     1  UNL1       -0.2651
     30 C         143.8185  139.6081  157.0994 C.3     1  UNL1        0.0918
     31 C         143.3656  138.3963  156.3402 C.3     1  UNL1        0.1128
     32 C         141.8499  134.8140  155.5534 C.3     1  UNL1        0.1960
     33 S         142.3026  136.0258  156.3126 S.O2    1  UNL1        0.0457
     34 O         140.8875  136.5199  156.3682 O.2     1  UNL1       -0.1572
     35 O         143.7178  135.5317  156.2570 O.2     1  UNL1       -0.1572
@<TRIPOS>BOND
     1    32    33    1
     2    33    34    2
     3    33    35    2
     4    33    26    1
     5    26    27    1
     6    27    28    1
     7    28    29    1
     8    29    25    1
     9    25     1    1
    10     1     2   ar
    11     2     3   ar
    12     3     4   ar
    13     4    19    1
    14    19    20    1
    15    20    21    1
    16    21    22    1
    17    22    23    1
    18    23    24    1
    19     4     5   ar
    20     5     6   ar
    21     6    10    1
    22    10    11   ar
    23    11    12   ar
    24    12    13   ar
    25    13    14    1
    26    13    15   ar
    27    15    16   ar
    28     6     7   ar
    29     7     8   ar
    30     8     9   ar
    31    29    30    1
    32    30    31    1
    33    31    26    1
    34     9     1   ar
    35     8     3   ar
    36    24    19    1
    37    16    10   ar
    38    14    17    1
    39    14    18    1
@<TRIPOS>MOLECULE
*****
 35 39 0 0 0
SMALL
GASTEIGER

@<TRIPOS>ATOM
      1 C         139.6309  139.6736  161.2016 C.ar    1  UNL1        0.0967
      2 C         140.5840  140.7590  161.6061 C.ar    1  UNL1        0.0398
      3 C         140.6630  140.7719  163.1040 C.ar    1  UNL1        0.1156
      4 C         141.4415  141.6255  164.0606 C.ar    1  UNL1        0.1497
      5 N         141.3157  141.4018  165.5385 N.ar    1  UNL1       -0.2275
      6 C         140.4115  140.3245  166.0597 C.ar    1  UNL1        0.1049
      7 C         139.6329  139.4709  165.1031 C.ar    1  UNL1        0.1196
      8 N         139.7587  139.6946  163.6252 N.ar    1  UNL1       -0.2242
      9 N         139.1208  139.0158  162.4494 N.ar    1  UNL1       -0.1679
     10 C         140.2857  140.1007  167.5376 C.ar    1  UNL1        0.0576
     11 C         138.9304  139.9343  168.1583 C.ar    1  UNL1        0.1049
     12 N         138.8046  139.7105  169.6363 N.ar    1  UNL1       -0.2124
     13 C         140.0342  139.6532  170.4934 C.ar    1  UNL1        0.2137
     14 N         139.9085  139.4294  171.9712 N.pl3   1  UNL1       -0.3274
     15 N         141.3896  139.8196  169.8726 N.ar    1  UNL1       -0.2124
     16 C         141.5153  140.0434  168.3948 C.ar    1  UNL1        0.1049
     17 H         139.0189  139.3202  172.3787 H       1  UNL1        0.1452
     18 H         140.7156  139.3918  172.5338 H       1  UNL1        0.1452
     19 N         142.3458  142.7029  163.5395 N.pl3   1  UNL1       -0.2869
     20 C         141.9561  144.1441  163.6840 C.3     1  UNL1        0.1243
     21 C         142.8604  145.2214  163.1628 C.3     1  UNL1        0.1636
     22 O         144.1544  144.8574  162.4972 O.3     1  UNL1       -0.3501
     23 C         144.5441  143.4162  162.3527 C.3     1  UNL1        0.1636
     24 C         143.6398  142.3389  162.8738 C.3     1  UNL1        0.1243
     25 C         139.2540  139.3100  159.7960 C.3     1  UNL1        0.1206
     26 N         142.1785  137.1052  157.1813 N.3     1  UNL1       -0.1565
     27 C         142.6161  137.6353  158.5145 C.3     1  UNL1        0.1128
     28 C         141.6412  138.3703  159.3860 C.3     1  UNL1        0.0918
     29 N         140.2288  138.5750  158.9244 N.3     1  UNL1       -0.2651
     30 C         139.7912  138.0449  157.5911 C.3     1  UNL1        0.0918
     31 C         140.7661  137.3100  156.7196 C.3     1  UNL1        0.1128
     32 C         144.1280  135.6353  155.4381 C.3     1  UNL1        0.1960
     33 S         143.1533  136.3703  156.3097 S.O2    1  UNL1        0.0457
     34 O         144.0008  137.6044  156.2169 O.2     1  UNL1       -0.1572
     35 O         142.3057  135.1362  156.4024 O.2     1  UNL1       -0.1572
@<TRIPOS>BOND
     1    32    33    1
     2    33    34    2
     3    33    35    2
     4    33    26    1
     5    26    27    1
     6    27    28    1
     7    28    29    1
     8    29    25    1
     9    25     1    1
    10     1     2   ar
    11     2     3   ar
    12     3     4   ar
    13     4    19    1
    14    19    20    1
    15    20    21    1
    16    21    22    1
    17    22    23    1
    18    23    24    1
    19     4     5   ar
    20     5     6   ar
    21     6    10    1
    22    10    11   ar
    23    11    12   ar
    24    12    13   ar
    25    13    14    1
    26    13    15   ar
    27    15    16   ar
    28     6     7   ar
    29     7     8   ar
    30     8     9   ar
    31    29    30    1
    32    30    31    1
    33    31    26    1
    34     9     1   ar
    35     8     3   ar
    36    24    19    1
    37    16    10   ar
    38    14    17    1
    39    14    18    1
@<TRIPOS>MOLECULE
*****
 35 39 0 0 0
SMALL
GASTEIGER

@<TRIPOS>ATOM
      1 C         142.8482  142.8169  160.6728 C.ar    1  UNL1        0.0967
      2 C         141.7372  141.8758  161.0334 C.ar    1  UNL1        0.0398
      3 C         141.6286  141.8384  162.5290 C.ar    1  UNL1        0.1156
      4 C         140.7140  141.0870  163.4504 C.ar    1  UNL1        0.1497
      5 N         140.8433  141.2537  164.9356 N.ar    1  UNL1       -0.2275
      6 C         141.8871  142.1716  165.4992 C.ar    1  UNL1        0.1049
      7 C         142.8017  142.9230  164.5778 C.ar    1  UNL1        0.1196
      8 N         142.6724  142.7564  163.0927 N.ar    1  UNL1       -0.2242
      9 N         143.4262  143.3612  161.9455 N.ar    1  UNL1       -0.1679
     10 C         142.0164  142.3382  166.9844 C.ar    1  UNL1        0.0576
     11 C         143.3732  142.3383  167.6238 C.ar    1  UNL1        0.1049
     12 N         143.5025  142.5049  169.1089 N.ar    1  UNL1       -0.2124
     13 C         142.2749  142.6715  169.9546 C.ar    1  UNL1        0.2137
     14 N         142.4041  142.8381  171.4397 N.pl3   1  UNL1       -0.3274
     15 N         140.9180  142.6714  169.3151 N.ar    1  UNL1       -0.2124
     16 C         140.7888  142.5048  167.8300 C.ar    1  UNL1        0.1049
     17 H         143.2947  142.8382  171.8593 H       1  UNL1        0.1452
     18 H         141.5984  142.9474  171.9947 H       1  UNL1        0.1452
     19 N         139.6701  140.1690  162.8868 N.pl3   1  UNL1       -0.2869
     20 C         139.7061  138.7046  163.2093 C.3     1  UNL1        0.1243
     21 C         138.6622  137.7867  162.6457 C.3     1  UNL1        0.1636
     22 O         137.5824  138.3332  161.7595 O.3     1  UNL1       -0.3501
     23 C         137.5465  139.7976  161.4369 C.3     1  UNL1        0.1636
     24 C         138.5904  140.7156  162.0006 C.3     1  UNL1        0.1243
     25 C         143.3016  143.1546  159.2834 C.3     1  UNL1        0.1206
     26 N         140.7675  145.8004  156.6704 N.3     1  UNL1       -0.1565
     27 C         140.6202  145.8570  158.1621 C.3     1  UNL1        0.1128
     28 C         141.4649  144.9750  159.0331 C.3     1  UNL1        0.0918
     29 N         142.4569  144.0365  158.4124 N.3     1  UNL1       -0.2651
     30 C         142.6041  143.9800  156.9207 C.3     1  UNL1        0.0918
     31 C         141.7594  144.8620  156.0497 C.3     1  UNL1        0.1128
     32 C         139.0781  147.5643  154.9284 C.3     1  UNL1        0.1960
     33 S         139.9228  146.6824  155.7994 S.O2    1  UNL1        0.0457
     34 O         140.5942  146.1218  154.5807 O.2     1  UNL1       -0.1572
     35 O         139.2514  147.2429  157.0180 O.2     1  UNL1       -0.1572
@<TRIPOS>BOND
     1    32    33    1
     2    33    34    2
     3    33    35    2
     4    33    26    1
     5    26    27    1
     6    27    28    1
     7    28    29    1
     8    29    25    1
     9    25     1    1
    10     1     2   ar
    11     2     3   ar
    12     3     4   ar
    13     4    19    1
    14    19    20    1
    15    20    21    1
    16    21    22    1
    17    22    23    1
    18    23    24    1
    19     4     5   ar
    20     5     6   ar
    21     6    10    1
    22    10    11   ar
    23    11    12   ar
    24    12    13   ar
    25    13    14    1
    26    13    15   ar
    27    15    16   ar
    28     6     7   ar
    29     7     8   ar
    30     8     9   ar
    31    29    30    1
    32    30    31    1
    33    31    26    1
    34     9     1   ar
    35     8     3   ar
    36    24    19    1
    37    16    10   ar
    38    14    17    1
    39    14    18    1
@<TRIPOS>MOLECULE
*****
 35 39 0 0 0
SMALL
GASTEIGER

@<TRIPOS>ATOM
      1 C         142.3001  140.0024  160.5291 C.ar    1  UNL1        0.0967
      2 C         141.5047  141.1760  161.0190 C.ar    1  UNL1        0.0398
      3 C         141.6167  141.2201  162.5142 C.ar    1  UNL1        0.1156
      4 C         141.0431  142.1560  163.5365 C.ar    1  UNL1        0.1497
      5 N         141.3342  141.9455  164.9929 N.ar    1  UNL1       -0.2275
      6 C         142.1987  140.7992  165.4269 C.ar    1  UNL1        0.1049
      7 C         142.7723  139.8633  164.4047 C.ar    1  UNL1        0.1196
      8 N         142.4813  140.0738  162.9483 N.ar    1  UNL1       -0.2242
      9 N         142.9036  139.3212  161.7214 N.ar    1  UNL1       -0.1679
     10 C         142.4897  140.5887  166.8834 C.ar    1  UNL1        0.0576
     11 C         142.5849  141.7666  167.8071 C.ar    1  UNL1        0.1049
     12 N         142.8759  141.5561  169.2635 N.ar    1  UNL1       -0.2124
     13 C         143.0717  140.1676  169.7961 C.ar    1  UNL1        0.2137
     14 N         143.3627  139.9570  171.2524 N.pl3   1  UNL1       -0.3274
     15 N         142.9765  138.9896  168.8723 N.ar    1  UNL1       -0.2124
     16 C         142.6855  139.2002  167.4159 C.ar    1  UNL1        0.1049
     17 H         143.4252  140.7301  171.8587 H       1  UNL1        0.1452
     18 H         143.4912  139.0457  171.6020 H       1  UNL1        0.1452
     19 N         140.1786  143.3024  163.1025 N.pl3   1  UNL1       -0.2869
     20 C         140.7975  144.5051  162.4541 C.3     1  UNL1        0.1243
     21 C         139.9329  145.6514  162.0201 C.3     1  UNL1        0.1636
     22 O         138.4493  145.5950  162.2345 O.3     1  UNL1       -0.3501
     23 C         137.8304  144.3923  162.8829 C.3     1  UNL1        0.1636
     24 C         138.6950  143.2460  163.3168 C.3     1  UNL1        0.1243
     25 C         142.4633  139.5836  159.0980 C.3     1  UNL1        0.1206
     26 N         145.5011  141.6331  156.4862 N.3     1  UNL1       -0.1565
     27 C         145.2173  142.1599  157.8617 C.3     1  UNL1        0.1128
     28 C         144.2046  141.4767  158.7323 C.3     1  UNL1        0.0918
     29 N         143.4759  140.2667  158.2274 N.3     1  UNL1       -0.2651
     30 C         143.7598  139.7399  156.8519 C.3     1  UNL1        0.0918
     31 C         144.7724  140.4231  155.9814 C.3     1  UNL1        0.1128
     32 C         147.5262  142.9993  154.7450 C.3     1  UNL1        0.1960
     33 S         146.5137  142.3162  155.6156 S.O2    1  UNL1        0.0457
     34 O         147.3378  142.6383  156.8269 O.2     1  UNL1       -0.1572
     35 O         145.6896  141.9941  154.4044 O.2     1  UNL1       -0.1572
@<TRIPOS>BOND
     1    32    33    1
     2    33    34    2
     3    33    35    2
     4    33    26    1
     5    26    27    1
     6    27    28    1
     7    28    29    1
     8    29    25    1
     9    25     1    1
    10     1     2   ar
    11     2     3   ar
    12     3     4   ar
    13     4    19    1
    14    19    20    1
    15    20    21    1
    16    21    22    1
    17    22    23    1
    18    23    24    1
    19     4     5   ar
    20     5     6   ar
    21     6    10    1
    22    10    11   ar
    23    11    12   ar
    24    12    13   ar
    25    13    14    1
    26    13    15   ar
    27    15    16   ar
    28     6     7   ar
    29     7     8   ar
    30     8     9   ar
    31    29    30    1
    32    30    31    1
    33    31    26    1
    34     9     1   ar
    35     8     3   ar
    36    24    19    1
    37    16    10   ar
    38    14    17    1
    39    14    18    1
@<TRIPOS>MOLECULE
*****
 35 39 0 0 0
SMALL
GASTEIGER

@<TRIPOS>ATOM
      1 C         143.2104  140.3735  160.7000 C.ar    1  UNL1        0.0967
      2 C         142.2707  141.4639  161.1219 C.ar    1  UNL1        0.0398
      3 C         142.2125  141.4714  162.6207 C.ar    1  UNL1        0.1156
      4 C         141.4533  142.3266  163.5914 C.ar    1  UNL1        0.1497
      5 N         141.5979  142.0960  165.0666 N.ar    1  UNL1       -0.2275
      6 C         142.5015  141.0103  165.5709 C.ar    1  UNL1        0.1049
      7 C         143.2607  140.1551  164.6003 C.ar    1  UNL1        0.1196
      8 N         143.1161  140.3856  163.1252 N.ar    1  UNL1       -0.2242
      9 N         143.7329  139.7071  161.9381 N.ar    1  UNL1       -0.1679
     10 C         142.6461  140.7797  167.0461 C.ar    1  UNL1        0.0576
     11 C         142.6851  141.9469  167.9874 C.ar    1  UNL1        0.1049
     12 N         142.8297  141.7163  169.4626 N.ar    1  UNL1       -0.2124
     13 C         142.9352  140.3185  169.9963 C.ar    1  UNL1        0.2137
     14 N         143.0798  140.0878  171.4714 N.pl3   1  UNL1       -0.3274
     15 N         142.8962  139.1513  169.0549 N.ar    1  UNL1       -0.2124
     16 C         142.7516  139.3819  167.5798 C.ar    1  UNL1        0.1049
     17 H         143.1054  140.8539  172.0892 H       1  UNL1        0.1452
     18 H         143.1490  139.1704  171.8217 H       1  UNL1        0.1452
     19 N         140.5496  143.4124  163.0870 N.pl3   1  UNL1       -0.2869
     20 C         141.1319  144.6246  162.4226 C.3     1  UNL1        0.1243
     21 C         140.2281  145.7104  161.9183 C.3     1  UNL1        0.1636
     22 O         138.7421  145.5839  162.0784 O.3     1  UNL1       -0.3501
     23 C         138.1597  144.3717  162.7428 C.3     1  UNL1        0.1636
     24 C         139.0635  143.2860  163.2471 C.3     1  UNL1        0.1243
     25 C         143.5652  140.0128  159.2879 C.3     1  UNL1        0.1206
     26 N         140.4084  138.3988  156.5167 N.3     1  UNL1       -0.1565
     27 C         141.4671  137.4858  157.0602 C.3     1  UNL1        0.1128
     28 C         142.5194  138.0239  157.9840 C.3     1  UNL1        0.0918
     29 N         142.5130  139.4749  158.3642 N.3     1  UNL1       -0.2651
     30 C         141.4542  140.3879  157.8206 C.3     1  UNL1        0.0918
     31 C         140.4020  139.8498  156.8968 C.3     1  UNL1        0.1128
     32 C         138.3039  137.3229  154.6692 C.3     1  UNL1        0.1960
     33 S         139.3561  137.8609  155.5929 S.O2    1  UNL1        0.0457
     34 O         138.4342  138.9737  155.9950 O.2     1  UNL1       -0.1572
     35 O         140.2780  136.7481  155.1908 O.2     1  UNL1       -0.1572
@<TRIPOS>BOND
     1    32    33    1
     2    33    34    2
     3    33    35    2
     4    33    26    1
     5    26    27    1
     6    27    28    1
     7    28    29    1
     8    29    25    1
     9    25     1    1
    10     1     2   ar
    11     2     3   ar
    12     3     4   ar
    13     4    19    1
    14    19    20    1
    15    20    21    1
    16    21    22    1
    17    22    23    1
    18    23    24    1
    19     4     5   ar
    20     5     6   ar
    21     6    10    1
    22    10    11   ar
    23    11    12   ar
    24    12    13   ar
    25    13    14    1
    26    13    15   ar
    27    15    16   ar
    28     6     7   ar
    29     7     8   ar
    30     8     9   ar
    31    29    30    1
    32    30    31    1
    33    31    26    1
    34     9     1   ar
    35     8     3   ar
    36    24    19    1
    37    16    10   ar
    38    14    17    1
    39    14    18    1
@<TRIPOS>MOLECULE
*****
 35 39 0 0 0
SMALL
GASTEIGER

@<TRIPOS>ATOM
      1 C         141.7317  138.8612  158.7636 C.ar    1  UNL1        0.0967
      2 C         142.1335  140.0336  159.6085 C.ar    1  UNL1        0.0398
      3 C         141.4530  139.9012  160.9387 C.ar    1  UNL1        0.1156
      4 C         141.4760  140.7606  162.1678 C.ar    1  UNL1        0.1497
      5 N         140.6765  140.3658  163.3741 N.ar    1  UNL1       -0.2275
      6 C         139.8541  139.1116  163.3512 C.ar    1  UNL1        0.1049
      7 C         139.8311  138.2521  162.1221 C.ar    1  UNL1        0.1196
      8 N         140.6306  138.6469  160.9158 N.ar    1  UNL1       -0.2242
      9 N         140.8028  138.0042  159.5715 N.ar    1  UNL1       -0.1679
     10 C         139.0546  138.7168  164.5575 C.ar    1  UNL1        0.0576
     11 C         138.3659  139.7670  165.3774 C.ar    1  UNL1        0.1049
     12 N         137.5664  139.3721  166.5837 N.ar    1  UNL1       -0.2124
     13 C         137.4557  137.9270  166.9699 C.ar    1  UNL1        0.2137
     14 N         136.6563  137.5321  168.1761 N.pl3   1  UNL1       -0.3274
     15 N         138.1446  136.8767  166.1499 N.ar    1  UNL1       -0.2124
     16 C         138.9440  137.2716  164.9437 C.ar    1  UNL1        0.1049
     17 H         136.2042  138.2214  168.7143 H       1  UNL1        0.1452
     18 H         136.5837  136.5835  168.4295 H       1  UNL1        0.1452
     19 N         142.2984  142.0149  162.1908 N.pl3   1  UNL1       -0.2869
     20 C         141.6369  143.3489  162.0090 C.3     1  UNL1        0.1243
     21 C         142.4594  144.6031  162.0320 C.3     1  UNL1        0.1636
     22 O         143.9432  144.5233  162.2368 O.3     1  UNL1       -0.3501
     23 C         144.6046  143.1894  162.4186 C.3     1  UNL1        0.1636
     24 C         143.7822  141.9351  162.3956 C.3     1  UNL1        0.1243
     25 C         142.1799  138.5929  157.3575 C.3     1  UNL1        0.1206
     26 N         141.8221  134.4518  155.6333 N.3     1  UNL1       -0.1565
     27 C         142.8655  134.7448  156.6704 C.3     1  UNL1        0.1128
     28 C         142.9847  136.1252  157.2451 C.3     1  UNL1        0.0918
     29 N         142.0606  137.2126  156.7827 N.3     1  UNL1       -0.2651
     30 C         141.0173  136.9195  155.7456 C.3     1  UNL1        0.0918
     31 C         140.8980  135.5391  155.1710 C.3     1  UNL1        0.1128
     32 C         141.5835  131.6911  154.4837 C.3     1  UNL1        0.1960
     33 S         141.7028  133.0714  155.0585 S.O2    1  UNL1        0.0457
     34 O         142.1120  132.4867  156.3779 O.2     1  UNL1       -0.1572
     35 O         141.2936  133.6561  153.7392 O.2     1  UNL1       -0.1572
@<TRIPOS>BOND
     1    32    33    1
     2    33    34    2
     3    33    35    2
     4    33    26    1
     5    26    27    1
     6    27    28    1
     7    28    29    1
     8    29    25    1
     9    25     1    1
    10     1     2   ar
    11     2     3   ar
    12     3     4   ar
    13     4    19    1
    14    19    20    1
    15    20    21    1
    16    21    22    1
    17    22    23    1
    18    23    24    1
    19     4     5   ar
    20     5     6   ar
    21     6    10    1
    22    10    11   ar
    23    11    12   ar
    24    12    13   ar
    25    13    14    1
    26    13    15   ar
    27    15    16   ar
    28     6     7   ar
    29     7     8   ar
    30     8     9   ar
    31    29    30    1
    32    30    31    1
    33    31    26    1
    34     9     1   ar
    35     8     3   ar
    36    24    19    1
    37    16    10   ar
    38    14    17    1
    39    14    18    1
@<TRIPOS>MOLECULE
*****
 35 39 0 0 0
SMALL
GASTEIGER

@<TRIPOS>ATOM
      1 C         139.3264  139.7622  163.1981 C.ar    1  UNL1        0.0967
      2 C         140.2645  140.9292  163.1087 C.ar    1  UNL1        0.0398
      3 C         140.0176  141.6233  161.8021 C.ar    1  UNL1        0.1156
      4 C         140.6451  142.8321  161.1735 C.ar    1  UNL1        0.1497
      5 N         140.1818  143.3028  159.8267 N.ar    1  UNL1       -0.2275
      6 C         139.0912  142.5648  159.1086 C.ar    1  UNL1        0.1049
      7 C         138.4638  141.3560  159.7372 C.ar    1  UNL1        0.1196
      8 N         138.9270  140.8853  161.0840 N.ar    1  UNL1       -0.2242
      9 N         138.4998  139.7350  161.9467 N.ar    1  UNL1       -0.1679
     10 C         138.6279  143.0355  157.7617 C.ar    1  UNL1        0.0576
     11 C         137.3710  142.4769  157.1635 C.ar    1  UNL1        0.1049
     12 N         136.9077  142.9476  155.8167 N.ar    1  UNL1       -0.2124
     13 C         137.7015  143.9770  155.0682 C.ar    1  UNL1        0.2137
     14 N         137.2383  144.4477  153.7214 N.pl3   1  UNL1       -0.3274
     15 N         138.9585  144.5356  155.6664 N.ar    1  UNL1       -0.2124
     16 C         139.4217  144.0649  157.0132 C.ar    1  UNL1        0.1049
     17 H         136.4133  144.0811  153.3288 H       1  UNL1        0.1452
     18 H         137.7593  145.1233  153.2301 H       1  UNL1        0.1452
     19 N         141.7358  143.5702  161.8916 N.pl3   1  UNL1       -0.2869
     20 C         143.1728  143.2475  161.6074 C.3     1  UNL1        0.1243
     21 C         144.2634  143.9856  162.3255 C.3     1  UNL1        0.1636
     22 O         143.9170  145.0464  163.3279 O.3     1  UNL1       -0.3501
     23 C         142.4800  145.3691  163.6121 C.3     1  UNL1        0.1636
     24 C         141.3894  144.6309  162.8940 C.3     1  UNL1        0.1243
     25 C         139.2316  138.7925  164.3386 C.3     1  UNL1        0.1206
     26 N         140.9311  139.8774  168.3616 N.3     1  UNL1       -0.1565
     27 C         139.4475  139.9046  168.1422 C.3     1  UNL1        0.1128
     28 C         138.8810  139.5429  166.8011 C.3     1  UNL1        0.0918
     29 N         139.7981  139.1541  165.6796 N.3     1  UNL1       -0.2651
     30 C         141.2817  139.1270  165.8992 C.3     1  UNL1        0.0918
     31 C         141.8482  139.4886  167.2402 C.3     1  UNL1        0.1128
     32 C         142.0640  140.6006  171.0436 C.3     1  UNL1        0.1960
     33 S         141.4976  140.2390  169.7026 S.O2    1  UNL1        0.0457
     34 O         142.6859  140.8626  169.0325 O.2     1  UNL1       -0.1572
     35 O         140.3093  139.6154  170.3728 O.2     1  UNL1       -0.1572
@<TRIPOS>BOND
     1    32    33    1
     2    33    34    2
     3    33    35    2
     4    33    26    1
     5    26    27    1
     6    27    28    1
     7    28    29    1
     8    29    25    1
     9    25     1    1
    10     1     2   ar
    11     2     3   ar
    12     3     4   ar
    13     4    19    1
    14    19    20    1
    15    20    21    1
    16    21    22    1
    17    22    23    1
    18    23    24    1
    19     4     5   ar
    20     5     6   ar
    21     6    10    1
    22    10    11   ar
    23    11    12   ar
    24    12    13   ar
    25    13    14    1
    26    13    15   ar
    27    15    16   ar
    28     6     7   ar
    29     7     8   ar
    30     8     9   ar
    31    29    30    1
    32    30    31    1
    33    31    26    1
    34     9     1   ar
    35     8     3   ar
    36    24    19    1
    37    16    10   ar
    38    14    17    1
    39    14    18    1
@<TRIPOS>MOLECULE
*****
 35 39 0 0 0
SMALL
GASTEIGER

@<TRIPOS>ATOM
      1 C         140.2784  144.5674  162.0737 C.ar    1  UNL1        0.0967
      2 C         139.9896  143.1042  161.9138 C.ar    1  UNL1        0.0398
      3 C         140.0176  142.4749  163.2751 C.ar    1  UNL1        0.1156
      4 C         139.8039  141.0624  163.7324 C.ar    1  UNL1        0.1497
      5 N         139.8963  140.7242  165.1909 N.ar    1  UNL1       -0.2275
      6 C         140.2024  141.7984  166.1920 C.ar    1  UNL1        0.1049
      7 C         140.4161  143.2109  165.7347 C.ar    1  UNL1        0.1196
      8 N         140.3237  143.5491  164.2763 N.ar    1  UNL1       -0.2242
      9 N         140.4849  144.8424  163.5337 N.ar    1  UNL1       -0.1679
     10 C         140.2948  141.4602  167.6505 C.ar    1  UNL1        0.0576
     11 C         139.7755  140.1446  168.1497 C.ar    1  UNL1        0.1049
     12 N         139.8679  139.8064  169.6083 N.ar    1  UNL1       -0.2124
     13 C         140.4797  140.7839  170.5674 C.ar    1  UNL1        0.2137
     14 N         140.5722  140.4458  172.0259 N.pl3   1  UNL1       -0.3274
     15 N         140.9991  142.0996  170.0682 N.ar    1  UNL1       -0.2124
     16 C         140.9066  142.4377  168.6097 C.ar    1  UNL1        0.1049
     17 H         140.2313  139.5823  172.3536 H       1  UNL1        0.1452
     18 H         140.9737  141.0874  172.6555 H       1  UNL1        0.1452
     19 N         139.4978  139.9880  162.7313 N.pl3   1  UNL1       -0.2869
     20 C         138.0999  139.4599  162.6018 C.3     1  UNL1        0.1243
     21 C         137.7939  138.3855  161.6007 C.3     1  UNL1        0.1636
     22 O         138.8858  137.8394  160.7292 O.3     1  UNL1       -0.3501
     23 C         140.2837  138.3676  160.8588 C.3     1  UNL1        0.1636
     24 C         140.5897  139.4419  161.8599 C.3     1  UNL1        0.1243
     25 C         140.3484  145.5782  160.9676 C.3     1  UNL1        0.1206
     26 N         142.0094  144.4084  156.9523 N.3     1  UNL1       -0.1565
     27 C         142.6460  143.8892  158.2074 C.3     1  UNL1        0.1128
     28 C         142.0922  144.2792  159.5458 C.3     1  UNL1        0.0918
     29 N         140.9020  145.1883  159.6292 N.3     1  UNL1       -0.2651
     30 C         140.2655  145.7074  158.3740 C.3     1  UNL1        0.0918
     31 C         140.8192  145.3175  157.0356 C.3     1  UNL1        0.1128
     32 C         143.1166  143.6286  154.2754 C.3     1  UNL1        0.1960
     33 S         142.5630  144.0184  155.6138 S.O2    1  UNL1        0.0457
     34 O         142.7686  142.6169  156.1072 O.2     1  UNL1       -0.1572
     35 O         142.3574  145.4200  155.1205 O.2     1  UNL1       -0.1572
@<TRIPOS>BOND
     1    32    33    1
     2    33    34    2
     3    33    35    2
     4    33    26    1
     5    26    27    1
     6    27    28    1
     7    28    29    1
     8    29    25    1
     9    25     1    1
    10     1     2   ar
    11     2     3   ar
    12     3     4   ar
    13     4    19    1
    14    19    20    1
    15    20    21    1
    16    21    22    1
    17    22    23    1
    18    23    24    1
    19     4     5   ar
    20     5     6   ar
    21     6    10    1
    22    10    11   ar
    23    11    12   ar
    24    12    13   ar
    25    13    14    1
    26    13    15   ar
    27    15    16   ar
    28     6     7   ar
    29     7     8   ar
    30     8     9   ar
    31    29    30    1
    32    30    31    1
    33    31    26    1
    34     9     1   ar
    35     8     3   ar
    36    24    19    1
    37    16    10   ar
    38    14    17    1
    39    14    18    1
