@<TRIPOS>MOLECULE
*****
 26 28 0 0 0
SMALL
GASTEIGER

@<TRIPOS>ATOM
      1 C         142.4688  142.1768  166.0679 C.3     1  UNL1        0.1418
      2 O         143.6841  142.6572  166.8042 O.3     1  UNL1       -0.3772
      3 H         143.5858  142.4660  167.7501 H       1  UNL1        0.2112
      4 C         141.8778  141.6933  167.3590 C.ar    1  UNL1        0.0261
      5 C         140.8145  142.4985  168.0452 C.ar    1  UNL1        0.0015
      6 C         140.2235  142.0150  169.3363 C.ar    1  UNL1        0.0204
      7 C         140.6958  140.7262  169.9412 C.ar    1  UNL1        0.0989
      8 N         141.7591  139.9210  169.2550 N.ar    1  UNL1       -0.2426
      9 C         142.3501  140.4045  167.9639 C.ar    1  UNL1        0.0972
     10 C         143.0598  142.6603  164.7768 C.ar    1  UNL1        0.0261
     11 C         143.1700  144.1317  164.5070 C.ar    1  UNL1        0.0015
     12 C         143.7610  144.6152  163.2159 C.ar    1  UNL1        0.0204
     13 C         144.2417  143.6274  162.1947 C.ar    1  UNL1        0.0989
     14 N         144.1315  142.1560  162.4645 N.ar    1  UNL1       -0.2426
     15 C         143.5405  141.6725  163.7556 C.ar    1  UNL1        0.0972
     16 C         141.2534  141.6964  165.3317 C.3     1  UNL1        0.0903
     17 N         140.3443  142.6829  164.6605 N.3     1  UNL1       -0.2671
     18 C         139.6817  143.7608  165.4662 C.3     1  UNL1        0.1047
     19 C         138.7727  144.7473  164.7951 C.3     1  UNL1        0.1595
     20 O         138.5263  144.6559  163.3183 O.3     1  UNL1       -0.3508
     21 C         139.1889  143.5780  162.5126 C.3     1  UNL1        0.1595
     22 C         140.0979  142.5915  163.1837 C.3     1  UNL1        0.1047
     23 C         140.9471  140.2294  165.2665 C.3     1  UNL1        0.0190
     24 C         139.5310  139.7524  165.3982 C.3     1  UNL1        0.0015
     25 C         137.7710  138.5700  166.8995 C.3     1  UNL1        0.0000
     26 C         138.9544  139.4805  166.7559 C.3     1  UNL1        0.0000
@<TRIPOS>BOND
     1    25    26    1
     2    26    24    1
     3    24    23    1
     4    23    16    1
     5    16    17    1
     6    17    18    1
     7    18    19    1
     8    19    20    1
     9    20    21    1
    10    21    22    1
    11    16     1    1
    12     1     2    1
    13     1     4    1
    14     4     5   ar
    15     5     6   ar
    16     6     7   ar
    17     7     8   ar
    18     8     9   ar
    19     1    10    1
    20    10    11   ar
    21    11    12   ar
    22    12    13   ar
    23    13    14   ar
    24    14    15   ar
    25    22    17    1
    26     9     4   ar
    27    15    10   ar
    28     2     3    1
@<TRIPOS>MOLECULE
*****
 26 28 0 0 0
SMALL
GASTEIGER

@<TRIPOS>ATOM
      1 C         142.4608  142.1488  166.2264 C.3     1  UNL1        0.1418
      2 O         143.6530  142.6395  166.9932 O.3     1  UNL1       -0.3772
      3 H         144.2933  143.0317  166.3792 H       1  UNL1        0.2112
      4 C         143.0896  142.6187  164.9482 C.ar    1  UNL1        0.0261
      5 C         143.2040  144.0870  164.6640 C.ar    1  UNL1        0.0015
      6 C         143.8328  144.5568  163.3858 C.ar    1  UNL1        0.0204
      7 C         144.3472  143.5583  162.3917 C.ar    1  UNL1        0.0989
      8 N         144.2328  142.0899  162.6759 N.ar    1  UNL1       -0.2426
      9 C         143.6040  141.6201  163.9541 C.ar    1  UNL1        0.0972
     10 C         141.8320  141.6790  167.5046 C.ar    1  UNL1        0.0261
     11 C         140.7610  142.4999  168.1597 C.ar    1  UNL1        0.0015
     12 C         140.1322  142.0301  169.4379 C.ar    1  UNL1        0.0204
     13 C         140.5744  140.7393  170.0611 C.ar    1  UNL1        0.0989
     14 N         141.6453  139.9184  169.4061 N.ar    1  UNL1       -0.2426
     15 C         142.2741  140.3883  168.1278 C.ar    1  UNL1        0.0972
     16 C         141.2686  141.6582  165.4596 C.3     1  UNL1        0.0903
     17 N         140.3718  142.6367  164.7607 N.3     1  UNL1       -0.2671
     18 C         139.6741  143.7077  165.5457 C.3     1  UNL1        0.1047
     19 C         138.7774  144.6861  164.8468 C.3     1  UNL1        0.1595
     20 O         138.5782  144.5935  163.3630 O.3     1  UNL1       -0.3508
     21 C         139.2759  143.5225  162.5780 C.3     1  UNL1        0.1595
     22 C         140.1727  142.5441  163.2769 C.3     1  UNL1        0.1047
     23 C         140.9732  140.1892  165.3916 C.3     1  UNL1        0.0190
     24 C         139.5561  139.7045  165.4741 C.3     1  UNL1        0.0015
     25 C         137.7387  138.5660  166.9407 C.3     1  UNL1        0.0000
     26 C         138.9136  139.4896  166.8124 C.3     1  UNL1        0.0000
@<TRIPOS>BOND
     1    25    26    1
     2    26    24    1
     3    24    23    1
     4    23    16    1
     5    16    17    1
     6    17    18    1
     7    18    19    1
     8    19    20    1
     9    20    21    1
    10    21    22    1
    11    16     1    1
    12     1     2    1
    13     1     4    1
    14     4     5   ar
    15     5     6   ar
    16     6     7   ar
    17     7     8   ar
    18     8     9   ar
    19     1    10    1
    20    10    11   ar
    21    11    12   ar
    22    12    13   ar
    23    13    14   ar
    24    14    15   ar
    25    22    17    1
    26     9     4   ar
    27    15    10   ar
    28     2     3    1
@<TRIPOS>MOLECULE
*****
 26 28 0 0 0
SMALL
GASTEIGER

@<TRIPOS>ATOM
      1 C         139.7087  139.9851  167.1433 C.3     1  UNL1        0.1418
      2 O         138.6836  139.0672  167.7406 O.3     1  UNL1       -0.3772
      3 H         138.7734  139.0670  168.7064 H       1  UNL1        0.2112
      4 C         140.2184  140.3093  168.5163 C.ar    1  UNL1        0.0261
      5 C         141.5568  139.7974  168.9597 C.ar    1  UNL1        0.0015
      6 C         142.0665  140.1216  170.3327 C.ar    1  UNL1        0.0204
      7 C         141.2378  140.9577  171.2623 C.ar    1  UNL1        0.0989
      8 N         139.8994  141.4695  170.8189 N.ar    1  UNL1       -0.2426
      9 C         139.3897  141.1454  169.4459 C.ar    1  UNL1        0.0972
     10 C         139.1991  139.6609  165.7703 C.ar    1  UNL1        0.0261
     11 C         138.3904  140.6717  165.0125 C.ar    1  UNL1        0.0015
     12 C         137.8807  140.3475  163.6395 C.ar    1  UNL1        0.0204
     13 C         138.1797  139.0125  163.0243 C.ar    1  UNL1        0.0989
     14 N         138.9884  138.0017  163.7822 N.ar    1  UNL1       -0.2426
     15 C         139.4980  138.3259  165.1552 C.ar    1  UNL1        0.0972
     16 C         140.7338  140.9029  166.5461 C.3     1  UNL1        0.0903
     17 N         141.8328  140.3449  165.6910 N.3     1  UNL1       -0.2671
     18 C         142.7749  139.3223  166.2536 C.3     1  UNL1        0.1047
     19 C         143.8738  138.7643  165.3985 C.3     1  UNL1        0.1595
     20 O         144.0305  139.2290  163.9810 O.3     1  UNL1       -0.3508
     21 C         143.0883  140.2516  163.4184 C.3     1  UNL1        0.1595
     22 C         141.9895  140.8096  164.2734 C.3     1  UNL1        0.1047
     23 C         140.6600  142.3788  166.8038 C.3     1  UNL1        0.0190
     24 C         140.3745  143.3240  165.6746 C.3     1  UNL1        0.0015
     25 C         138.2181  144.3195  164.6218 C.3     1  UNL1        0.0000
     26 C         139.2002  144.2539  165.7536 C.3     1  UNL1        0.0000
@<TRIPOS>BOND
     1    25    26    1
     2    26    24    1
     3    24    23    1
     4    23    16    1
     5    16    17    1
     6    17    18    1
     7    18    19    1
     8    19    20    1
     9    20    21    1
    10    21    22    1
    11    16     1    1
    12     1     2    1
    13     1     4    1
    14     4     5   ar
    15     5     6   ar
    16     6     7   ar
    17     7     8   ar
    18     8     9   ar
    19     1    10    1
    20    10    11   ar
    21    11    12   ar
    22    12    13   ar
    23    13    14   ar
    24    14    15   ar
    25    22    17    1
    26     9     4   ar
    27    15    10   ar
    28     2     3    1
@<TRIPOS>MOLECULE
*****
 26 28 0 0 0
SMALL
GASTEIGER

@<TRIPOS>ATOM
      1 C         140.9677  140.7208  167.3489 C.3     1  UNL1        0.1418
      2 O         140.3256  139.8658  168.4009 O.3     1  UNL1       -0.3772
      3 H         139.8038  139.1673  167.9758 H       1  UNL1        0.2112
      4 C         140.3390  139.8773  166.2797 C.ar    1  UNL1        0.0261
      5 C         141.1837  138.9358  165.4735 C.ar    1  UNL1        0.0015
      6 C         140.5550  138.0924  164.4042 C.ar    1  UNL1        0.0204
      7 C         139.0815  138.1904  164.1412 C.ar    1  UNL1        0.0989
      8 N         138.2368  139.1319  164.9474 N.ar    1  UNL1       -0.2426
      9 C         138.8655  139.9754  166.0166 C.ar    1  UNL1        0.0972
     10 C         141.5965  141.5642  168.4182 C.ar    1  UNL1        0.0261
     11 C         142.9764  141.2441  168.9114 C.ar    1  UNL1        0.0015
     12 C         143.6052  142.0875  169.9806 C.ar    1  UNL1        0.0204
     13 C         142.8540  143.2511  170.5567 C.ar    1  UNL1        0.0989
     14 N         141.4741  143.5712  170.0634 N.ar    1  UNL1       -0.2426
     15 C         140.8453  142.7277  168.9942 C.ar    1  UNL1        0.0972
     16 C         141.6099  141.5757  166.2969 C.3     1  UNL1        0.0903
     17 N         140.7624  142.4491  165.4200 N.3     1  UNL1       -0.2671
     18 C         140.7977  142.2759  163.9304 C.3     1  UNL1        0.1047
     19 C         139.9502  143.1493  163.0536 C.3     1  UNL1        0.1595
     20 O         139.0673  144.1958  163.6662 O.3     1  UNL1       -0.3508
     21 C         139.0320  144.3689  165.1557 C.3     1  UNL1        0.1595
     22 C         139.8795  143.4956  166.0326 C.3     1  UNL1        0.1047
     23 C         143.0995  141.5573  166.1219 C.3     1  UNL1        0.0190
     24 C         143.8272  142.8168  165.7553 C.3     1  UNL1        0.0015
     25 C         145.4844  141.8479  164.0047 C.3     1  UNL1        0.0000
     26 C         144.5273  142.9206  164.4328 C.3     1  UNL1        0.0000
@<TRIPOS>BOND
     1    25    26    1
     2    26    24    1
     3    24    23    1
     4    23    16    1
     5    16    17    1
     6    17    18    1
     7    18    19    1
     8    19    20    1
     9    20    21    1
    10    21    22    1
    11    16     1    1
    12     1     2    1
    13     1     4    1
    14     4     5   ar
    15     5     6   ar
    16     6     7   ar
    17     7     8   ar
    18     8     9   ar
    19     1    10    1
    20    10    11   ar
    21    11    12   ar
    22    12    13   ar
    23    13    14   ar
    24    14    15   ar
    25    22    17    1
    26     9     4   ar
    27    15    10   ar
    28     2     3    1
@<TRIPOS>MOLECULE
*****
 26 28 0 0 0
SMALL
GASTEIGER

@<TRIPOS>ATOM
      1 C         139.7009  139.9894  167.1313 C.3     1  UNL1        0.1418
      2 O         138.6839  139.0607  167.7256 O.3     1  UNL1       -0.3772
      3 H         138.1519  138.6672  167.0164 H       1  UNL1        0.2112
      4 C         139.1879  139.6722  165.7579 C.ar    1  UNL1        0.0261
      5 C         138.3721  140.6844  165.0097 C.ar    1  UNL1        0.0015
      6 C         137.8591  140.3672  163.6363 C.ar    1  UNL1        0.0204
      7 C         138.1619  139.0379  163.0111 C.ar    1  UNL1        0.0989
      8 N         138.9778  138.0257  163.7593 N.ar    1  UNL1       -0.2426
      9 C         139.4908  138.3429  165.1327 C.ar    1  UNL1        0.0972
     10 C         140.2139  140.3066  168.5047 C.ar    1  UNL1        0.0261
     11 C         141.5578  139.8011  168.9386 C.ar    1  UNL1        0.0015
     12 C         142.0708  140.1183  170.3120 C.ar    1  UNL1        0.0204
     13 C         141.2398  140.9410  171.2515 C.ar    1  UNL1        0.0989
     14 N         139.8959  141.4464  170.8176 N.ar    1  UNL1       -0.2426
     15 C         139.3829  141.1293  169.4442 C.ar    1  UNL1        0.0972
     16 C         140.7179  140.9181  166.5370 C.3     1  UNL1        0.0903
     17 N         141.8274  140.3713  165.6883 N.3     1  UNL1       -0.2671
     18 C         142.7562  139.3337  166.2454 C.3     1  UNL1        0.1047
     19 C         143.8656  138.7870  165.3967 C.3     1  UNL1        0.1595
     20 O         144.0462  139.2780  163.9909 O.3     1  UNL1       -0.3508
     21 C         143.1173  140.3156  163.4337 C.3     1  UNL1        0.1595
     22 C         142.0079  140.8623  164.2824 C.3     1  UNL1        0.1047
     23 C         140.6255  142.3935  166.7913 C.3     1  UNL1        0.0190
     24 C         140.3532  143.3347  165.6555 C.3     1  UNL1        0.0015
     25 C         138.1241  144.2744  164.7080 C.3     1  UNL1        0.0000
     26 C         139.2109  144.3031  165.7413 C.3     1  UNL1        0.0000
@<TRIPOS>BOND
     1    25    26    1
     2    26    24    1
     3    24    23    1
     4    23    16    1
     5    16    17    1
     6    17    18    1
     7    18    19    1
     8    19    20    1
     9    20    21    1
    10    21    22    1
    11    16     1    1
    12     1     2    1
    13     1     4    1
    14     4     5   ar
    15     5     6   ar
    16     6     7   ar
    17     7     8   ar
    18     8     9   ar
    19     1    10    1
    20    10    11   ar
    21    11    12   ar
    22    12    13   ar
    23    13    14   ar
    24    14    15   ar
    25    22    17    1
    26     9     4   ar
    27    15    10   ar
    28     2     3    1
@<TRIPOS>MOLECULE
*****
 26 28 0 0 0
SMALL
GASTEIGER

@<TRIPOS>ATOM
      1 C         142.5012  139.9502  167.0011 C.3     1  UNL1        0.1418
      2 O         143.3116  138.8291  167.5811 O.3     1  UNL1       -0.3772
      3 H         143.5974  138.2350  166.8696 H       1  UNL1        0.2112
      4 C         142.6835  139.3721  165.6290 C.ar    1  UNL1        0.0261
      5 C         141.5708  138.5971  164.9878 C.ar    1  UNL1        0.0015
      6 C         141.7530  138.0190  163.6158 C.ar    1  UNL1        0.0204
      7 C         143.0480  138.2158  162.8849 C.ar    1  UNL1        0.0989
      8 N         144.1607  138.9908  163.5261 N.ar    1  UNL1       -0.2426
      9 C         143.9785  139.5689  164.8982 C.ar    1  UNL1        0.0972
     10 C         142.3190  140.5283  168.3732 C.ar    1  UNL1        0.0261
     11 C         143.0275  141.7945  168.7537 C.ar    1  UNL1        0.0015
     12 C         142.8452  142.3726  170.1258 C.ar    1  UNL1        0.0204
     13 C         141.9545  141.6846  171.1173 C.ar    1  UNL1        0.0989
     14 N         141.2460  140.4184  170.7367 N.ar    1  UNL1       -0.2426
     15 C         141.4283  139.8403  169.3647 C.ar    1  UNL1        0.0972
     16 C         141.6909  141.0713  166.4211 C.3     1  UNL1        0.0903
     17 N         142.3059  141.9993  165.4157 N.3     1  UNL1       -0.2671
     18 C         143.5673  142.7386  165.7508 C.3     1  UNL1        0.1047
     19 C         144.1823  143.6665  164.7455 C.3     1  UNL1        0.1595
     20 O         143.5360  143.8551  163.4051 O.3     1  UNL1       -0.3508
     21 C         142.2746  143.1158  163.0700 C.3     1  UNL1        0.1595
     22 C         141.6596  142.1879  164.0754 C.3     1  UNL1        0.1047
     23 C         140.2655  141.2644  166.8463 C.3     1  UNL1        0.0190
     24 C         139.1806  140.4276  166.2356 C.3     1  UNL1        0.0015
     25 C         138.0556  138.0875  166.3236 C.3     1  UNL1        0.0000
     26 C         138.5579  139.3145  167.0250 C.3     1  UNL1        0.0000
@<TRIPOS>BOND
     1    25    26    1
     2    26    24    1
     3    24    23    1
     4    23    16    1
     5    16    17    1
     6    17    18    1
     7    18    19    1
     8    19    20    1
     9    20    21    1
    10    21    22    1
    11    16     1    1
    12     1     2    1
    13     1     4    1
    14     4     5   ar
    15     5     6   ar
    16     6     7   ar
    17     7     8   ar
    18     8     9   ar
    19     1    10    1
    20    10    11   ar
    21    11    12   ar
    22    12    13   ar
    23    13    14   ar
    24    14    15   ar
    25    22    17    1
    26     9     4   ar
    27    15    10   ar
    28     2     3    1
@<TRIPOS>MOLECULE
*****
 26 28 0 0 0
SMALL
GASTEIGER

@<TRIPOS>ATOM
      1 C         142.4749  139.8976  166.9220 C.3     1  UNL1        0.1418
      2 O         143.2781  138.7723  167.5038 O.3     1  UNL1       -0.3772
      3 H         143.3238  138.8722  168.4676 H       1  UNL1        0.2112
      4 C         142.2658  140.4593  168.2971 C.ar    1  UNL1        0.0261
      5 C         143.0236  141.6784  168.7324 C.ar    1  UNL1        0.0015
      6 C         142.8146  142.2401  170.1075 C.ar    1  UNL1        0.0204
      7 C         141.8477  141.5828  171.0472 C.ar    1  UNL1        0.0989
      8 N         141.0899  140.3637  170.6118 N.ar    1  UNL1       -0.2426
      9 C         141.2990  139.8020  169.2367 C.ar    1  UNL1        0.0972
     10 C         142.6839  139.3359  165.5470 C.ar    1  UNL1        0.0261
     11 C         141.5792  138.5808  164.8693 C.ar    1  UNL1        0.0015
     12 C         141.7882  138.0191  163.4943 C.ar    1  UNL1        0.0204
     13 C         143.1020  138.2125  162.7968 C.ar    1  UNL1        0.0989
     14 N         144.2068  138.9676  163.4745 N.ar    1  UNL1       -0.2426
     15 C         143.9977  139.5293  164.8495 C.ar    1  UNL1        0.0972
     16 C         141.6716  141.0229  166.3402 C.3     1  UNL1        0.0903
     17 N         142.3176  141.9984  165.4014 N.3     1  UNL1       -0.2671
     18 C         141.7409  142.2179  164.0343 C.3     1  UNL1        0.1047
     19 C         142.3869  143.1934  163.0956 C.3     1  UNL1        0.1595
     20 O         143.6096  143.9492  163.5240 O.3     1  UNL1       -0.3508
     21 C         144.1864  143.7297  164.8912 C.3     1  UNL1        0.1595
     22 C         143.5404  142.7543  165.8299 C.3     1  UNL1        0.1047
     23 C         140.2225  141.1728  166.6971 C.3     1  UNL1        0.0190
     24 C         139.1715  141.0491  165.6340 C.3     1  UNL1        0.0015
     25 C         138.2173  138.9237  166.7836 C.3     1  UNL1        0.0000
     26 C         138.2723  139.8489  165.6042 C.3     1  UNL1        0.0000
@<TRIPOS>BOND
     1    25    26    1
     2    26    24    1
     3    24    23    1
     4    23    16    1
     5    16    17    1
     6    17    18    1
     7    18    19    1
     8    19    20    1
     9    20    21    1
    10    21    22    1
    11    16     1    1
    12     1     2    1
    13     1     4    1
    14     4     5   ar
    15     5     6   ar
    16     6     7   ar
    17     7     8   ar
    18     8     9   ar
    19     1    10    1
    20    10    11   ar
    21    11    12   ar
    22    12    13   ar
    23    13    14   ar
    24    14    15   ar
    25    22    17    1
    26     9     4   ar
    27    15    10   ar
    28     2     3    1
@<TRIPOS>MOLECULE
*****
 26 28 0 0 0
SMALL
GASTEIGER

@<TRIPOS>ATOM
      1 C         140.9478  140.7731  167.2581 C.3     1  UNL1        0.1418
      2 O         140.3083  139.8812  168.2806 O.3     1  UNL1       -0.3772
      3 H         140.5526  140.1818  169.1699 H       1  UNL1        0.2112
      4 C         141.5746  141.5814  168.3552 C.ar    1  UNL1        0.0261
      5 C         142.9297  141.2099  168.8802 C.ar    1  UNL1        0.0015
      6 C         143.5565  142.0183  169.9773 C.ar    1  UNL1        0.0204
      7 C         142.8282  143.1982  170.5494 C.ar    1  UNL1        0.0989
      8 N         141.4731  143.5697  170.0244 N.ar    1  UNL1       -0.2426
      9 C         140.8463  142.7613  168.9273 C.ar    1  UNL1        0.0972
     10 C         140.3210  139.9647  166.1609 C.ar    1  UNL1        0.0261
     11 C         141.1635  139.0340  165.3400 C.ar    1  UNL1        0.0015
     12 C         140.5367  138.2257  164.2428 C.ar    1  UNL1        0.0204
     13 C         139.0674  138.3480  163.9667 C.ar    1  UNL1        0.0989
     14 N         138.2250  139.2787  164.7877 N.ar    1  UNL1       -0.2426
     15 C         138.8518  140.0870  165.8848 C.ar    1  UNL1        0.0972
     16 C         141.5873  141.6650  166.2356 C.3     1  UNL1        0.0903
     17 N         140.7359  142.5534  165.3777 N.3     1  UNL1       -0.2671
     18 C         140.7825  142.4223  163.8842 C.3     1  UNL1        0.1047
     19 C         139.9311  143.3106  163.0264 C.3     1  UNL1        0.1595
     20 O         139.0330  144.3301  163.6622 O.3     1  UNL1       -0.3508
     21 C         138.9864  144.4612  165.1557 C.3     1  UNL1        0.1595
     22 C         139.8378  143.5728  166.0134 C.3     1  UNL1        0.1047
     23 C         143.0782  141.6685  166.0709 C.3     1  UNL1        0.0190
     24 C         143.8136  142.9677  165.9248 C.3     1  UNL1        0.0015
     25 C         143.7327  144.7996  164.0843 C.3     1  UNL1        0.0000
     26 C         144.2054  143.4588  164.5628 C.3     1  UNL1        0.0000
@<TRIPOS>BOND
     1    25    26    1
     2    26    24    1
     3    24    23    1
     4    23    16    1
     5    16    17    1
     6    17    18    1
     7    18    19    1
     8    19    20    1
     9    20    21    1
    10    21    22    1
    11    16     1    1
    12     1     2    1
    13     1     4    1
    14     4     5   ar
    15     5     6   ar
    16     6     7   ar
    17     7     8   ar
    18     8     9   ar
    19     1    10    1
    20    10    11   ar
    21    11    12   ar
    22    12    13   ar
    23    13    14   ar
    24    14    15   ar
    25    22    17    1
    26     9     4   ar
    27    15    10   ar
    28     2     3    1
@<TRIPOS>MOLECULE
*****
 26 28 0 0 0
SMALL
GASTEIGER

@<TRIPOS>ATOM
      1 C         142.4225  141.8848  165.5929 C.3     1  UNL1        0.1418
      2 O         143.9167  141.8380  165.4698 O.3     1  UNL1       -0.3772
      3 H         144.1880  142.2849  164.6528 H       1  UNL1        0.2112
      4 C         142.3392  142.6343  164.2962 C.ar    1  UNL1        0.0261
      5 C         142.6821  144.0938  164.2502 C.ar    1  UNL1        0.0015
      6 C         142.5988  144.8433  162.9536 C.ar    1  UNL1        0.0204
      7 C         142.1726  144.1333  161.7029 C.ar    1  UNL1        0.0989
      8 N         141.8297  142.6738  161.7489 N.ar    1  UNL1       -0.2426
      9 C         141.9130  141.9243  163.0456 C.ar    1  UNL1        0.0972
     10 C         142.5058  141.1353  166.8895 C.ar    1  UNL1        0.0261
     11 C         142.2171  141.8389  168.1824 C.ar    1  UNL1        0.0015
     12 C         142.3004  141.0894  169.4791 C.ar    1  UNL1        0.0204
     13 C         142.6723  139.6363  169.4828 C.ar    1  UNL1        0.0989
     14 N         142.9610  138.9327  168.1900 N.ar    1  UNL1       -0.2426
     15 C         142.8777  139.6822  166.8933 C.ar    1  UNL1        0.0972
     16 C         140.9283  141.9316  165.7159 C.3     1  UNL1        0.0903
     17 N         140.1278  140.6666  165.6201 N.3     1  UNL1       -0.2671
     18 C         139.2220  140.2652  166.7462 C.3     1  UNL1        0.1047
     19 C         138.4216  139.0002  166.6504 C.3     1  UNL1        0.1595
     20 O         138.5271  138.1367  165.4284 O.3     1  UNL1       -0.3508
     21 C         139.4330  138.5381  164.3023 C.3     1  UNL1        0.1595
     22 C         140.2334  139.8031  164.3982 C.3     1  UNL1        0.1047
     23 C         140.2345  143.2434  165.9347 C.3     1  UNL1        0.0190
     24 C         139.0173  143.5915  165.1301 C.3     1  UNL1        0.0015
     25 C         138.6821  144.7292  162.8186 C.3     1  UNL1        0.0000
     26 C         139.0087  144.8268  164.2793 C.3     1  UNL1        0.0000
@<TRIPOS>BOND
     1    25    26    1
     2    26    24    1
     3    24    23    1
     4    23    16    1
     5    16    17    1
     6    17    18    1
     7    18    19    1
     8    19    20    1
     9    20    21    1
    10    21    22    1
    11    16     1    1
    12     1     2    1
    13     1     4    1
    14     4     5   ar
    15     5     6   ar
    16     6     7   ar
    17     7     8   ar
    18     8     9   ar
    19     1    10    1
    20    10    11   ar
    21    11    12   ar
    22    12    13   ar
    23    13    14   ar
    24    14    15   ar
    25    22    17    1
    26     9     4   ar
    27    15    10   ar
    28     2     3    1
