@<TRIPOS>MOLECULE
*****
 34 37 0 0 0
SMALL
GASTEIGER

@<TRIPOS>ATOM
      1 C         138.2921  137.4907  165.8379 C.3     1  UNL1        0.0556
      2 C         138.8697  138.5853  164.9904 C.ar    1  UNL1        0.0981
      3 N         138.7180  138.7231  163.5044 N.ar    1  UNL1       -0.1719
      4 N         139.4549  139.9572  163.0757 N.ar    1  UNL1       -0.2444
      5 C         140.0620  140.5823  164.2967 C.ar    1  UNL1        0.1284
      6 C         140.8974  141.8139  164.4839 C.ar    1  UNL1        0.1550
      7 N         141.3711  142.1977  165.8544 N.ar    1  UNL1       -0.1970
      8 C         141.0094  141.3498  167.0377 C.ar    1  UNL1        0.2215
      9 N         140.1740  140.1182  166.8505 N.ar    1  UNL1       -0.2108
     10 C         139.7003  139.7344  165.4800 C.ar    1  UNL1        0.1193
     11 N         141.4832  141.7336  168.4082 N.pl3   1  UNL1       -0.2754
     12 C         140.5287  141.7115  169.5652 C.3     1  UNL1        0.1107
     13 C         141.0024  142.0952  170.9357 C.3     1  UNL1        0.0904
     14 N         142.4306  142.5011  171.1493 N.3     1  UNL1       -0.2957
     15 C         143.3850  142.5233  169.9924 C.3     1  UNL1        0.0742
     16 C         144.8132  142.9292  170.2059 C.3     1  UNL1        0.0189
     17 C         142.9113  142.1395  168.6218 C.3     1  UNL1        0.1093
     18 H         142.8193  141.8585  171.8394 H       1  UNL1        0.1233
     19 N         141.2591  142.6619  163.3005 N.pl3   1  UNL1       -0.2820
     20 H         140.6221  143.3319  162.9620 H       1  UNL1        0.1551
     21 C         142.5911  142.4888  162.6330 C.ar    1  UNL1        0.1366
     22 C         142.7492  142.8172  161.1780 C.ar    1  UNL1        0.0551
     23 C         144.0812  142.6441  160.5104 C.ar    1  UNL1        0.1036
     24 N         145.2553  142.1426  161.2979 N.ar    1  UNL1       -0.2223
     25 C         145.0973  141.8142  162.7530 C.ar    1  UNL1        0.2001
     26 N         143.7652  141.9873  163.4205 N.ar    1  UNL1       -0.2089
     27 C         139.5653  140.4755  161.6724 C.3     1  UNL1        0.1595
     28 C         138.6184  141.5325  161.1866 C.3     1  UNL1        0.1688
     29 O         138.6720  142.9132  161.7704 O.3     1  UNL1       -0.3435
     30 C         137.6839  143.3215  162.8224 C.3     1  UNL1        0.2459
     31 C         138.1098  144.2259  163.9408 C.3     1  UNL1        0.4248
     32 F         138.5358  145.1303  165.0590 F       1  UNL1       -0.1674
     33 F         138.6260  145.2184  162.9415 F       1  UNL1       -0.1674
     34 F         137.5936  143.2334  164.9400 F       1  UNL1       -0.1674
@<TRIPOS>BOND
     1     1     2    1
     2     2     3   ar
     3     3     4   ar
     4     4    27    1
     5    27    28    1
     6    28    29    1
     7    29    30    1
     8    30    31    1
     9    31    32    1
    10    31    33    1
    11    31    34    1
    12     4     5   ar
    13     5     6   ar
    14     6    19    1
    15    19    21    1
    16    21    22   ar
    17    22    23   ar
    18    23    24   ar
    19    24    25   ar
    20    25    26   ar
    21     6     7   ar
    22     7     8   ar
    23     8    11    1
    24    11    12    1
    25    12    13    1
    26    13    14    1
    27    14    15    1
    28    15    16    1
    29    15    17    1
    30     8     9   ar
    31     9    10   ar
    32    10     2   ar
    33    10     5   ar
    34    26    21   ar
    35    17    11    1
    36    19    20    1
    37    14    18    1
@<TRIPOS>MOLECULE
*****
 34 37 0 0 0
SMALL
GASTEIGER

@<TRIPOS>ATOM
      1 C         142.2341  142.4169  170.9039 C.3     1  UNL1        0.0556
      2 C         141.2512  141.6584  170.0623 C.ar    1  UNL1        0.0981
      3 N         139.9810  141.0238  170.5462 N.ar    1  UNL1       -0.1719
      4 N         139.3107  140.3744  169.3720 N.ar    1  UNL1       -0.2444
      5 C         140.1665  140.6077  168.1623 C.ar    1  UNL1        0.1284
      6 C         140.0087  140.1999  166.7274 C.ar    1  UNL1        0.1550
      7 N         141.0501  140.5857  165.7192 N.ar    1  UNL1       -0.1970
      8 C         142.2494  141.3792  166.1458 C.ar    1  UNL1        0.2215
      9 N         142.4072  141.7869  167.5807 N.ar    1  UNL1       -0.2108
     10 C         141.3658  141.4011  168.5889 C.ar    1  UNL1        0.1193
     11 N         143.2909  141.7650  165.1376 N.pl3   1  UNL1       -0.2754
     12 C         144.4269  140.8323  164.8384 C.3     1  UNL1        0.1107
     13 C         145.4684  141.2181  163.8302 C.3     1  UNL1        0.0904
     14 N         145.3739  142.5366  163.1212 N.3     1  UNL1       -0.2957
     15 C         144.2378  143.4693  163.4204 C.3     1  UNL1        0.0742
     16 C         144.1433  144.7878  162.7114 C.3     1  UNL1        0.0189
     17 C         143.1963  143.0835  164.4286 C.3     1  UNL1        0.1093
     18 H         145.3315  142.3317  162.1229 H       1  UNL1        0.1233
     19 N         138.8093  139.4064  166.3008 N.pl3   1  UNL1       -0.2820
     20 H         138.2034  139.0276  166.9780 H       1  UNL1        0.1551
     21 C         138.5332  139.1901  164.8424 C.ar    1  UNL1        0.1366
     22 C         138.8660  137.8745  164.2031 C.ar    1  UNL1        0.0551
     23 C         138.5899  137.6582  162.7447 C.ar    1  UNL1        0.1036
     24 N         137.9810  138.7574  161.9256 N.ar    1  UNL1       -0.2223
     25 C         137.6483  140.0730  162.5648 C.ar    1  UNL1        0.2001
     26 N         137.9244  140.2893  164.0232 N.ar    1  UNL1       -0.2089
     27 C         138.0124  139.6237  169.4020 C.3     1  UNL1        0.1595
     28 C         137.3305  139.3570  170.7112 C.3     1  UNL1        0.1688
     29 O         136.5017  138.1191  170.8867 O.3     1  UNL1       -0.3435
     30 C         135.6411  137.9591  172.1047 C.3     1  UNL1        0.2459
     31 C         135.7883  136.7447  172.9728 C.3     1  UNL1        0.4248
     32 F         135.9355  135.5303  173.8408 F       1  UNL1       -0.1674
     33 F         137.2046  136.5828  172.5061 F       1  UNL1       -0.1674
     34 F         134.3719  136.9067  173.4395 F       1  UNL1       -0.1674
@<TRIPOS>BOND
     1     1     2    1
     2     2     3   ar
     3     3     4   ar
     4     4    27    1
     5    27    28    1
     6    28    29    1
     7    29    30    1
     8    30    31    1
     9    31    32    1
    10    31    33    1
    11    31    34    1
    12     4     5   ar
    13     5     6   ar
    14     6    19    1
    15    19    21    1
    16    21    22   ar
    17    22    23   ar
    18    23    24   ar
    19    24    25   ar
    20    25    26   ar
    21     6     7   ar
    22     7     8   ar
    23     8    11    1
    24    11    12    1
    25    12    13    1
    26    13    14    1
    27    14    15    1
    28    15    16    1
    29    15    17    1
    30     8     9   ar
    31     9    10   ar
    32    10     2   ar
    33    10     5   ar
    34    26    21   ar
    35    17    11    1
    36    19    20    1
    37    14    18    1
@<TRIPOS>MOLECULE
*****
 34 37 0 0 0
SMALL
GASTEIGER

@<TRIPOS>ATOM
      1 C         138.2462  145.1360  165.9827 C.3     1  UNL1        0.0556
      2 C         139.1819  144.3188  165.1420 C.ar    1  UNL1        0.0981
      3 N         139.3194  144.3925  163.6501 N.ar    1  UNL1       -0.1719
      4 N         140.3669  143.4038  163.2317 N.ar    1  UNL1       -0.2444
      5 C         140.8769  142.7190  164.4651 C.ar    1  UNL1        0.1284
      6 C         141.9135  141.6536  164.6656 C.ar    1  UNL1        0.1550
      7 N         142.2178  141.1537  166.0467 N.ar    1  UNL1       -0.1970
      8 C         141.4855  141.7192  167.2273 C.ar    1  UNL1        0.2215
      9 N         140.4488  142.7847  167.0268 N.ar    1  UNL1       -0.2108
     10 C         140.1445  143.2846  165.6457 C.ar    1  UNL1        0.1193
     11 N         141.7897  141.2193  168.6085 N.pl3   1  UNL1       -0.2754
     12 C         141.5667  142.1101  169.7945 C.3     1  UNL1        0.1107
     13 C         141.8710  141.6103  171.1757 C.3     1  UNL1        0.0904
     14 N         142.3982  140.2196  171.3708 N.3     1  UNL1       -0.2957
     15 C         142.6212  139.3288  170.1847 C.3     1  UNL1        0.0742
     16 C         143.1485  137.9381  170.3798 C.3     1  UNL1        0.0189
     17 C         142.3170  139.8287  168.8035 C.3     1  UNL1        0.1093
     18 H         141.7384  139.7375  171.9812 H       1  UNL1        0.1233
     19 N         142.6459  141.0881  163.4850 N.pl3   1  UNL1       -0.2820
     20 H         143.4691  141.5213  163.1627 H       1  UNL1        0.1551
     21 C         142.1240  139.8624  162.7954 C.ar    1  UNL1        0.1366
     22 C         142.9472  139.1890  161.7378 C.ar    1  UNL1        0.0551
     23 C         142.4253  137.9634  161.0483 C.ar    1  UNL1        0.1036
     24 N         141.0801  137.4112  161.4164 N.ar    1  UNL1       -0.2223
     25 C         140.2568  138.0847  162.4741 C.ar    1  UNL1        0.2001
     26 N         140.7787  139.3103  163.1636 N.ar    1  UNL1       -0.2089
     27 C         140.8242  143.1452  161.8268 C.3     1  UNL1        0.1595
     28 C         141.9328  143.9650  161.2360 C.3     1  UNL1        0.1688
     29 O         142.8420  144.7532  162.1315 O.3     1  UNL1       -0.3435
     30 C         144.0729  144.1128  162.7016 C.3     1  UNL1        0.2459
     31 C         144.3266  144.1594  164.1793 C.3     1  UNL1        0.4248
     32 F         144.5804  144.2059  165.6569 F       1  UNL1       -0.1674
     33 F         145.2330  142.9701  164.0611 F       1  UNL1       -0.1674
     34 F         143.4202  145.3487  164.2975 F       1  UNL1       -0.1674
@<TRIPOS>BOND
     1     1     2    1
     2     2     3   ar
     3     3     4   ar
     4     4    27    1
     5    27    28    1
     6    28    29    1
     7    29    30    1
     8    30    31    1
     9    31    32    1
    10    31    33    1
    11    31    34    1
    12     4     5   ar
    13     5     6   ar
    14     6    19    1
    15    19    21    1
    16    21    22   ar
    17    22    23   ar
    18    23    24   ar
    19    24    25   ar
    20    25    26   ar
    21     6     7   ar
    22     7     8   ar
    23     8    11    1
    24    11    12    1
    25    12    13    1
    26    13    14    1
    27    14    15    1
    28    15    16    1
    29    15    17    1
    30     8     9   ar
    31     9    10   ar
    32    10     2   ar
    33    10     5   ar
    34    26    21   ar
    35    17    11    1
    36    19    20    1
    37    14    18    1
@<TRIPOS>MOLECULE
*****
 34 37 0 0 0
SMALL
GASTEIGER

@<TRIPOS>ATOM
      1 C         138.4196  137.2641  165.8714 C.3     1  UNL1        0.0556
      2 C         139.0464  138.3035  164.9901 C.ar    1  UNL1        0.0981
      3 N         138.9601  138.3591  163.4936 N.ar    1  UNL1       -0.1719
      4 N         139.7299  139.5598  163.0292 N.ar    1  UNL1       -0.2444
      5 C         140.2919  140.2464  164.2388 C.ar    1  UNL1        0.1284
      6 C         141.1337  141.4782  164.3932 C.ar    1  UNL1        0.1550
      7 N         141.5531  141.9336  165.7594 N.ar    1  UNL1       -0.1970
      8 C         141.1306  141.1572  166.9713 C.ar    1  UNL1        0.2215
      9 N         140.2888  139.9253  166.8169 N.ar    1  UNL1       -0.2108
     10 C         139.8694  139.4699  165.4506 C.ar    1  UNL1        0.1193
     11 N         141.5500  141.6126  168.3376 N.pl3   1  UNL1       -0.2754
     12 C         140.5518  141.6444  169.4568 C.3     1  UNL1        0.1107
     13 C         140.9711  142.0998  170.8230 C.3     1  UNL1        0.0904
     14 N         142.3887  142.5234  171.0702 N.3     1  UNL1       -0.2957
     15 C         143.3870  142.4915  169.9511 C.3     1  UNL1        0.0742
     16 C         144.8045  142.9151  170.1982 C.3     1  UNL1        0.0189
     17 C         142.9676  142.0361  168.5847 C.3     1  UNL1        0.1093
     18 H         142.7526  141.9186  171.8066 H       1  UNL1        0.1233
     19 N         141.5561  142.2547  163.1812 N.pl3   1  UNL1       -0.2820
     20 H         142.3695  141.9967  162.6902 H       1  UNL1        0.1551
     21 C         140.7392  143.4241  162.7175 C.ar    1  UNL1        0.1366
     22 C         139.3878  143.6794  163.3160 C.ar    1  UNL1        0.0551
     23 C         138.5709  144.8489  162.8522 C.ar    1  UNL1        0.1036
     24 N         139.1055  145.7630  161.7899 N.ar    1  UNL1       -0.2223
     25 C         140.4570  145.5077  161.1913 C.ar    1  UNL1        0.2001
     26 N         141.2739  144.3383  161.6551 N.ar    1  UNL1       -0.2089
     27 C         139.9067  139.9973  161.6054 C.3     1  UNL1        0.1595
     28 C         141.1546  139.6314  160.8578 C.3     1  UNL1        0.1688
     29 O         142.4987  139.9696  161.4312 O.3     1  UNL1       -0.3435
     30 C         143.3671  138.8853  161.9971 C.3     1  UNL1        0.2459
     31 C         143.6478  138.8413  163.4700 C.3     1  UNL1        0.4248
     32 F         143.9285  138.7974  164.9428 F       1  UNL1       -0.1674
     33 F         144.8210  139.7550  163.2737 F       1  UNL1       -0.1674
     34 F         142.4745  137.9276  163.6663 F       1  UNL1       -0.1674
@<TRIPOS>BOND
     1     1     2    1
     2     2     3   ar
     3     3     4   ar
     4     4    27    1
     5    27    28    1
     6    28    29    1
     7    29    30    1
     8    30    31    1
     9    31    32    1
    10    31    33    1
    11    31    34    1
    12     4     5   ar
    13     5     6   ar
    14     6    19    1
    15    19    21    1
    16    21    22   ar
    17    22    23   ar
    18    23    24   ar
    19    24    25   ar
    20    25    26   ar
    21     6     7   ar
    22     7     8   ar
    23     8    11    1
    24    11    12    1
    25    12    13    1
    26    13    14    1
    27    14    15    1
    28    15    16    1
    29    15    17    1
    30     8     9   ar
    31     9    10   ar
    32    10     2   ar
    33    10     5   ar
    34    26    21   ar
    35    17    11    1
    36    19    20    1
    37    14    18    1
@<TRIPOS>MOLECULE
*****
 34 37 0 0 0
SMALL
GASTEIGER

@<TRIPOS>ATOM
      1 C         141.1364  136.9413  164.1567 C.3     1  UNL1        0.0556
      2 C         141.3545  138.3684  163.7494 C.ar    1  UNL1        0.0981
      3 N         141.4906  138.8731  162.3435 N.ar    1  UNL1       -0.1719
      4 N         141.6949  140.3580  162.4018 N.ar    1  UNL1       -0.2444
      5 C         141.6850  140.7709  163.8438 C.ar    1  UNL1        0.1284
      6 C         141.8404  142.1078  164.5061 C.ar    1  UNL1        0.1550
      7 N         141.7854  142.2151  166.0012 N.ar    1  UNL1       -0.1970
      8 C         141.5750  140.9855  166.8341 C.ar    1  UNL1        0.2215
      9 N         141.4196  139.6486  166.1718 N.ar    1  UNL1       -0.2108
     10 C         141.4746  139.5413  164.6767 C.ar    1  UNL1        0.1193
     11 N         141.5199  141.0927  168.3293 N.pl3   1  UNL1       -0.2754
     12 C         142.4824  140.3107  169.1732 C.3     1  UNL1        0.1107
     13 C         142.4274  140.4179  170.6683 C.3     1  UNL1        0.0904
     14 N         141.4099  141.3071  171.3196 N.3     1  UNL1       -0.2957
     15 C         140.4475  142.0891  170.4757 C.3     1  UNL1        0.0742
     16 C         139.4300  142.9783  171.1269 C.3     1  UNL1        0.0189
     17 C         140.5025  141.9819  168.9805 C.3     1  UNL1        0.1093
     18 H         141.9267  141.9841  171.8809 H       1  UNL1        0.1233
     19 N         142.0509  143.3375  163.6731 N.pl3   1  UNL1       -0.2820
     20 H         142.9641  143.6425  163.4676 H       1  UNL1        0.1551
     21 C         140.8699  144.1024  163.1534 C.ar    1  UNL1        0.1366
     22 C         139.4860  143.7465  163.6096 C.ar    1  UNL1        0.0551
     23 C         138.3050  144.5114  163.0898 C.ar    1  UNL1        0.1036
     24 N         138.5079  145.6323  162.1139 N.ar    1  UNL1       -0.2223
     25 C         139.8918  145.9883  161.6576 C.ar    1  UNL1        0.2001
     26 N         141.0728  145.2233  162.1774 N.ar    1  UNL1       -0.2089
     27 C         141.8772  141.2698  161.2248 C.3     1  UNL1        0.1595
     28 C         143.2555  141.6894  160.8074 C.3     1  UNL1        0.1688
     29 O         144.1244  142.4603  161.7564 O.3     1  UNL1       -0.3435
     30 C         145.3157  141.8016  162.3863 C.3     1  UNL1        0.2459
     31 C         145.1517  140.9982  163.6423 C.3     1  UNL1        0.4248
     32 F         144.9877  140.1948  164.8983 F       1  UNL1       -0.1674
     33 F         145.4414  142.2205  164.4620 F       1  UNL1       -0.1674
     34 F         144.8620  139.7758  162.8225 F       1  UNL1       -0.1674
@<TRIPOS>BOND
     1     1     2    1
     2     2     3   ar
     3     3     4   ar
     4     4    27    1
     5    27    28    1
     6    28    29    1
     7    29    30    1
     8    30    31    1
     9    31    32    1
    10    31    33    1
    11    31    34    1
    12     4     5   ar
    13     5     6   ar
    14     6    19    1
    15    19    21    1
    16    21    22   ar
    17    22    23   ar
    18    23    24   ar
    19    24    25   ar
    20    25    26   ar
    21     6     7   ar
    22     7     8   ar
    23     8    11    1
    24    11    12    1
    25    12    13    1
    26    13    14    1
    27    14    15    1
    28    15    16    1
    29    15    17    1
    30     8     9   ar
    31     9    10   ar
    32    10     2   ar
    33    10     5   ar
    34    26    21   ar
    35    17    11    1
    36    19    20    1
    37    14    18    1
@<TRIPOS>MOLECULE
*****
 34 37 0 0 0
SMALL
GASTEIGER

@<TRIPOS>ATOM
      1 C         137.9081  136.9562  166.4016 C.3     1  UNL1        0.0556
      2 C         138.6452  137.6859  165.3179 C.ar    1  UNL1        0.0981
      3 N         138.5780  137.3859  163.8498 N.ar    1  UNL1       -0.1719
      4 N         139.4703  138.3582  163.1367 N.ar    1  UNL1       -0.2444
      5 C         140.0889  139.2592  164.1643 C.ar    1  UNL1        0.1284
      6 C         141.0506  140.4042  164.0465 C.ar    1  UNL1        0.1550
      7 N         141.5024  141.1337  165.2768 N.ar    1  UNL1       -0.1970
      8 C         140.9926  140.7182  166.6248 C.ar    1  UNL1        0.2215
      9 N         140.0308  139.5731  166.7426 N.ar    1  UNL1       -0.2108
     10 C         139.5790  138.8436  165.5123 C.ar    1  UNL1        0.1193
     11 N         141.4444  141.4477  167.8552 N.pl3   1  UNL1       -0.2754
     12 C         142.7219  141.0524  168.5347 C.3     1  UNL1        0.1107
     13 C         143.1737  141.7819  169.7650 C.3     1  UNL1        0.0904
     14 N         142.3481  142.9066  170.3159 N.3     1  UNL1       -0.2957
     15 C         141.0706  143.3018  169.6363 C.3     1  UNL1        0.0742
     16 C         140.2449  144.4265  170.1871 C.3     1  UNL1        0.0189
     17 C         140.6187  142.5723  168.4059 C.3     1  UNL1        0.1093
     18 H         142.9452  143.7335  170.3243 H       1  UNL1        0.1233
     19 N         141.5605  140.8198  162.6984 N.pl3   1  UNL1       -0.2820
     20 H         141.3983  140.2485  161.9132 H       1  UNL1        0.1551
     21 C         142.3176  142.1058  162.5466 C.ar    1  UNL1        0.1366
     22 C         141.5790  143.3841  162.2813 C.ar    1  UNL1        0.0551
     23 C         142.3361  144.6701  162.1296 C.ar    1  UNL1        0.1036
     24 N         143.8317  144.6778  162.2432 N.ar    1  UNL1       -0.2223
     25 C         144.5704  143.3995  162.5085 C.ar    1  UNL1        0.2001
     26 N         143.8133  142.1135  162.6602 N.ar    1  UNL1       -0.2089
     27 C         139.7030  138.4191  161.6561 C.3     1  UNL1        0.1595
     28 C         138.9371  139.3977  160.8161 C.3     1  UNL1        0.1688
     29 O         137.8060  140.1781  161.4173 O.3     1  UNL1       -0.3435
     30 C         137.9472  141.6552  161.6368 C.3     1  UNL1        0.2459
     31 C         137.6281  142.2482  162.9771 C.3     1  UNL1        0.4248
     32 F         137.3089  142.8411  164.3175 F       1  UNL1       -0.1674
     33 F         137.2881  140.8839  163.4997 F       1  UNL1       -0.1674
     34 F         137.9680  143.6125  162.4545 F       1  UNL1       -0.1674
@<TRIPOS>BOND
     1     1     2    1
     2     2     3   ar
     3     3     4   ar
     4     4    27    1
     5    27    28    1
     6    28    29    1
     7    29    30    1
     8    30    31    1
     9    31    32    1
    10    31    33    1
    11    31    34    1
    12     4     5   ar
    13     5     6   ar
    14     6    19    1
    15    19    21    1
    16    21    22   ar
    17    22    23   ar
    18    23    24   ar
    19    24    25   ar
    20    25    26   ar
    21     6     7   ar
    22     7     8   ar
    23     8    11    1
    24    11    12    1
    25    12    13    1
    26    13    14    1
    27    14    15    1
    28    15    16    1
    29    15    17    1
    30     8     9   ar
    31     9    10   ar
    32    10     2   ar
    33    10     5   ar
    34    26    21   ar
    35    17    11    1
    36    19    20    1
    37    14    18    1
@<TRIPOS>MOLECULE
*****
 34 37 0 0 0
SMALL
GASTEIGER

@<TRIPOS>ATOM
      1 C         138.1434  145.1439  165.8699 C.3     1  UNL1        0.0556
      2 C         139.1693  144.4261  165.0439 C.ar    1  UNL1        0.0981
      3 N         139.3623  144.5640  163.5627 N.ar    1  UNL1       -0.1719
      4 N         140.4945  143.6675  163.1574 N.ar    1  UNL1       -0.2444
      5 C         141.0012  142.9756  164.3881 C.ar    1  UNL1        0.1284
      6 C         142.1027  141.9791  164.5977 C.ar    1  UNL1        0.1550
      7 N         142.3851  141.4515  165.9731 N.ar    1  UNL1       -0.1970
      8 C         141.5660  141.9204  167.1390 C.ar    1  UNL1        0.2215
      9 N         140.4646  142.9168  166.9294 N.ar    1  UNL1       -0.2108
     10 C         140.1822  143.4444  165.5539 C.ar    1  UNL1        0.1193
     11 N         141.8484  141.3928  168.5145 N.pl3   1  UNL1       -0.2754
     12 C         141.6811  142.2848  169.7088 C.3     1  UNL1        0.1107
     13 C         141.9634  141.7573  171.0843 C.3     1  UNL1        0.0904
     14 N         142.4131  140.3377  171.2655 N.3     1  UNL1       -0.2957
     15 C         142.5804  139.4458  170.0712 C.3     1  UNL1        0.0742
     16 C         143.0300  138.0263  170.2523 C.3     1  UNL1        0.0189
     17 C         142.2980  139.9733  168.6956 C.3     1  UNL1        0.1093
     18 H         141.7303  139.8881  171.8754 H       1  UNL1        0.1233
     19 N         142.9218  141.5103  163.4317 N.pl3   1  UNL1       -0.2820
     20 H         143.6532  142.0716  163.0865 H       1  UNL1        0.1551
     21 C         142.6263  140.1862  162.7917 C.ar    1  UNL1        0.1366
     22 C         141.2050  139.7545  162.5833 C.ar    1  UNL1        0.0551
     23 C         140.9095  138.4304  161.9433 C.ar    1  UNL1        0.1036
     24 N         142.0353  137.5381  161.5117 N.ar    1  UNL1       -0.2223
     25 C         143.4567  137.9699  161.7201 C.ar    1  UNL1        0.2001
     26 N         143.7522  139.2939  162.3601 N.ar    1  UNL1       -0.2089
     27 C         141.0266  143.4935  161.7658 C.3     1  UNL1        0.1595
     28 C         140.1658  143.8343  160.5856 C.3     1  UNL1        0.1688
     29 O         138.7563  143.3262  160.5137 O.3     1  UNL1       -0.3435
     30 C         138.4717  141.8702  160.7349 C.3     1  UNL1        0.2459
     31 C         137.7358  141.4284  161.9651 C.3     1  UNL1        0.4248
     32 F         137.0000  140.9865  163.1952 F       1  UNL1       -0.1674
     33 F         138.0338  139.9972  161.6293 F       1  UNL1       -0.1674
     34 F         137.4379  142.8596  162.3009 F       1  UNL1       -0.1674
@<TRIPOS>BOND
     1     1     2    1
     2     2     3   ar
     3     3     4   ar
     4     4    27    1
     5    27    28    1
     6    28    29    1
     7    29    30    1
     8    30    31    1
     9    31    32    1
    10    31    33    1
    11    31    34    1
    12     4     5   ar
    13     5     6   ar
    14     6    19    1
    15    19    21    1
    16    21    22   ar
    17    22    23   ar
    18    23    24   ar
    19    24    25   ar
    20    25    26   ar
    21     6     7   ar
    22     7     8   ar
    23     8    11    1
    24    11    12    1
    25    12    13    1
    26    13    14    1
    27    14    15    1
    28    15    16    1
    29    15    17    1
    30     8     9   ar
    31     9    10   ar
    32    10     2   ar
    33    10     5   ar
    34    26    21   ar
    35    17    11    1
    36    19    20    1
    37    14    18    1
@<TRIPOS>MOLECULE
*****
 34 37 0 0 0
SMALL
GASTEIGER

@<TRIPOS>ATOM
      1 C         144.3098  142.1581  157.4119 C.3     1  UNL1        0.0556
      2 C         144.1351  141.3667  158.6741 C.ar    1  UNL1        0.0981
      3 N         144.4066  141.8555  160.0660 N.ar    1  UNL1       -0.1719
      4 N         144.0975  140.7385  161.0181 N.ar    1  UNL1       -0.2444
      5 C         143.6351  139.5592  160.2146 C.ar    1  UNL1        0.1284
      6 C         143.1958  138.1820  160.6150 C.ar    1  UNL1        0.1550
      7 N         142.7797  137.1930  159.5667 N.ar    1  UNL1       -0.1970
      8 C         142.8030  137.5813  158.1181 C.ar    1  UNL1        0.2215
      9 N         143.2422  138.9586  157.7177 N.ar    1  UNL1       -0.2108
     10 C         143.6583  139.9475  158.7660 C.ar    1  UNL1        0.1193
     11 N         142.3869  136.5924  157.0697 N.pl3   1  UNL1       -0.2754
     12 C         141.1632  136.8483  156.2409 C.3     1  UNL1        0.1107
     13 C         140.7471  135.8594  155.1926 C.3     1  UNL1        0.0904
     14 N         141.5548  134.6146  154.9731 N.3     1  UNL1       -0.2957
     15 C         142.7785  134.3587  155.8019 C.3     1  UNL1        0.0742
     16 C         143.5862  133.1139  155.5825 C.3     1  UNL1        0.0189
     17 C         143.1946  135.3476  156.8503 C.3     1  UNL1        0.1093
     18 H         141.8564  134.6273  153.9988 H       1  UNL1        0.1233
     19 N         143.1726  137.7937  162.0638 N.pl3   1  UNL1       -0.2820
     20 H         144.0023  137.5081  162.5102 H       1  UNL1        0.1551
     21 C         141.8852  137.8405  162.8322 C.ar    1  UNL1        0.1366
     22 C         141.8985  138.1516  164.2995 C.ar    1  UNL1        0.0551
     23 C         140.6112  138.1984  165.0680 C.ar    1  UNL1        0.1036
     24 N         139.3105  137.9342  164.3691 N.ar    1  UNL1       -0.2223
     25 C         139.2972  137.6231  162.9018 C.ar    1  UNL1        0.2001
     26 N         140.5845  137.5763  162.1333 N.ar    1  UNL1       -0.2089
     27 C         144.2280  140.7913  162.5115 C.3     1  UNL1        0.1595
     28 C         145.2927  141.6394  163.1417 C.3     1  UNL1        0.1688
     29 O         144.9336  142.9591  163.7576 O.3     1  UNL1       -0.3435
     30 C         144.2276  144.0005  162.9410 C.3     1  UNL1        0.2459
     31 C         143.0800  144.7654  163.5311 C.3     1  UNL1        0.4248
     32 F         141.9325  145.5303  164.1210 F       1  UNL1       -0.1674
     33 F         142.1297  144.0361  162.6283 F       1  UNL1       -0.1674
     34 F         144.0304  145.4948  164.4338 F       1  UNL1       -0.1674
@<TRIPOS>BOND
     1     1     2    1
     2     2     3   ar
     3     3     4   ar
     4     4    27    1
     5    27    28    1
     6    28    29    1
     7    29    30    1
     8    30    31    1
     9    31    32    1
    10    31    33    1
    11    31    34    1
    12     4     5   ar
    13     5     6   ar
    14     6    19    1
    15    19    21    1
    16    21    22   ar
    17    22    23   ar
    18    23    24   ar
    19    24    25   ar
    20    25    26   ar
    21     6     7   ar
    22     7     8   ar
    23     8    11    1
    24    11    12    1
    25    12    13    1
    26    13    14    1
    27    14    15    1
    28    15    16    1
    29    15    17    1
    30     8     9   ar
    31     9    10   ar
    32    10     2   ar
    33    10     5   ar
    34    26    21   ar
    35    17    11    1
    36    19    20    1
    37    14    18    1
@<TRIPOS>MOLECULE
*****
 34 37 0 0 0
SMALL
GASTEIGER

@<TRIPOS>ATOM
      1 C         145.0925  138.6846  165.3439 C.3     1  UNL1        0.0556
      2 C         144.0040  139.2146  164.4583 C.ar    1  UNL1        0.0981
      3 N         143.9695  139.1364  162.9607 N.ar    1  UNL1       -0.1719
      4 N         142.7031  139.7892  162.4915 N.ar    1  UNL1       -0.2444
      5 C         141.9550  140.2709  163.6992 C.ar    1  UNL1        0.1284
      6 C         140.6456  140.9870  163.8491 C.ar    1  UNL1        0.1550
      7 N         140.1401  141.3479  165.2144 N.ar    1  UNL1       -0.1970
      8 C         140.9441  140.9928  166.4299 C.ar    1  UNL1        0.2215
      9 N         142.2536  140.2767  166.2800 N.ar    1  UNL1       -0.2108
     10 C         142.7590  139.9157  164.9147 C.ar    1  UNL1        0.1193
     11 N         140.4387  141.3538  167.7953 N.pl3   1  UNL1       -0.2754
     12 C         139.6831  140.3434  168.6067 C.3     1  UNL1        0.1107
     13 C         139.1777  140.7043  169.9720 C.3     1  UNL1        0.0904
     14 N         139.4278  142.0756  170.5261 N.3     1  UNL1       -0.2957
     15 C         140.1833  143.0860  169.7147 C.3     1  UNL1        0.0742
     16 C         140.4334  144.4573  170.2688 C.3     1  UNL1        0.0189
     17 C         140.6888  142.7251  168.3493 C.3     1  UNL1        0.1093
     18 H         139.9441  141.9517  171.3970 H       1  UNL1        0.1233
     19 N         139.8415  141.3421  162.6336 N.pl3   1  UNL1       -0.2820
     20 H         139.3570  140.6404  162.1415 H       1  UNL1        0.1551
     21 C         139.7758  142.7664  162.1677 C.ar    1  UNL1        0.1366
     22 C         139.2249  143.8272  163.0738 C.ar    1  UNL1        0.0551
     23 C         139.1591  145.2515  162.6080 C.ar    1  UNL1        0.1036
     24 N         139.6442  145.6150  161.2359 N.ar    1  UNL1       -0.2223
     25 C         140.1951  144.5542  160.3297 C.ar    1  UNL1        0.2001
     26 N         140.2609  143.1299  160.7956 N.ar    1  UNL1       -0.2089
     27 C         142.2622  139.9348  161.0652 C.3     1  UNL1        0.1595
     28 C         141.7925  138.7338  160.2991 C.3     1  UNL1        0.1688
     29 O         140.9977  137.6664  160.9911 O.3     1  UNL1       -0.3435
     30 C         139.6519  137.9894  161.5693 C.3     1  UNL1        0.2459
     31 C         139.3623  137.6872  163.0097 C.3     1  UNL1        0.4248
     32 F         139.0728  137.3849  164.4501 F       1  UNL1       -0.1674
     33 F         140.6925  137.0052  163.1340 F       1  UNL1       -0.1674
     34 F         138.0321  138.3691  162.8853 F       1  UNL1       -0.1674
@<TRIPOS>BOND
     1     1     2    1
     2     2     3   ar
     3     3     4   ar
     4     4    27    1
     5    27    28    1
     6    28    29    1
     7    29    30    1
     8    30    31    1
     9    31    32    1
    10    31    33    1
    11    31    34    1
    12     4     5   ar
    13     5     6   ar
    14     6    19    1
    15    19    21    1
    16    21    22   ar
    17    22    23   ar
    18    23    24   ar
    19    24    25   ar
    20    25    26   ar
    21     6     7   ar
    22     7     8   ar
    23     8    11    1
    24    11    12    1
    25    12    13    1
    26    13    14    1
    27    14    15    1
    28    15    16    1
    29    15    17    1
    30     8     9   ar
    31     9    10   ar
    32    10     2   ar
    33    10     5   ar
    34    26    21   ar
    35    17    11    1
    36    19    20    1
    37    14    18    1
