@<TRIPOS>MOLECULE
*****
 37 42 0 0 0
SMALL
GASTEIGER

@<TRIPOS>ATOM
      1 C         139.7785  144.1072  158.3146 C.3     1  UNL1        0.0666
      2 S         140.6843  145.0755  159.0161 S.3     1  UNL1       -0.0756
      3 C         141.5159  144.4534  162.7560 C.ar    1  UNL1        0.1669
      4 N         140.4690  145.5221  162.8657 N.ar    1  UNL1       -0.1282
      5 N         140.0300  145.8852  161.4781 N.ar    1  UNL1       -0.1221
      6 C         140.8057  145.0410  160.5107 C.ar    1  UNL1        0.1932
      7 N         141.7240  144.1561  161.3006 N.ar    1  UNL1       -0.2884
      8 C         142.6822  143.1504  160.7343 C.3     1  UNL1        0.1340
      9 C         139.3292  139.8707  167.3892 C.3     1  UNL1        0.0521
     10 C         140.0543  140.8523  166.5171 C.ar    1  UNL1        0.0593
     11 C         139.3408  141.5084  165.3724 C.ar    1  UNL1        0.0147
     12 C         140.0658  142.4901  164.5003 C.ar    1  UNL1        0.0028
     13 C         141.5044  142.8157  164.7729 C.ar    1  UNL1        0.0206
     14 C         142.2295  143.7974  163.9008 C.ar    1  UNL1        0.0374
     15 C         143.6681  144.1230  164.1733 C.ar    1  UNL1        0.0031
     16 C         144.3817  143.4669  165.3181 C.ar    1  UNL1        0.0016
     17 C         143.6566  142.4853  166.1902 C.ar    1  UNL1        0.0191
     18 C         142.2179  142.1596  165.9176 C.ar    1  UNL1        0.0810
     19 N         141.4929  141.1780  166.7897 N.ar    1  UNL1       -0.2497
     20 C         139.6533  142.6992  158.8163 C.3     1  UNL1        0.0294
     21 C         138.4709  142.3024  159.6497 C.3     1  UNL1        0.0730
     22 N         138.5336  141.0691  160.5013 N.3     1  UNL1       -0.2724
     23 C         137.4562  140.0339  160.6343 C.3     1  UNL1        0.0724
     24 C         137.9413  138.9796  161.5846 C.3     1  UNL1        0.0214
     25 C         138.6841  138.1033  162.5492 C.3     1  UNL1        0.0072
     26 C         139.3184  139.3631  162.0389 C.3     1  UNL1        0.0350
     27 C         139.6845  140.6546  161.3694 C.3     1  UNL1        0.0761
     28 C         140.6019  139.2120  162.8003 C.ar    1  UNL1       -0.0215
     29 C         140.6738  138.2774  163.9713 C.ar    1  UNL1       -0.0043
     30 C         141.9573  138.1262  164.7326 C.ar    1  UNL1        0.0035
     31 C         143.1691  138.9097  164.3230 C.ar    1  UNL1        0.0714
     32 C         143.0972  139.8443  163.1520 C.ar    1  UNL1        0.0035
     33 C         141.8137  139.9954  162.3906 C.ar    1  UNL1       -0.0043
     34 C         144.4526  138.7585  165.0844 C.3     1  UNL1        0.4186
     35 F         145.7361  138.6074  165.8458 F       1  UNL1       -0.1659
     36 F         143.7184  138.0447  166.1804 F       1  UNL1       -0.1659
     37 F         145.1868  139.4724  163.9884 F       1  UNL1       -0.1659
@<TRIPOS>BOND
     1     9    10    1
     2    10    11   ar
     3    11    12   ar
     4    12    13   ar
     5    13    14   ar
     6    14     3    1
     7     3     4   ar
     8     4     5   ar
     9     5     6   ar
    10     6     2    1
    11     2     1    1
    12     1    20    1
    13    20    21    1
    14    21    22    1
    15    22    23    1
    16    23    24    1
    17    24    25    1
    18    25    26    1
    19    26    28    1
    20    28    29   ar
    21    29    30   ar
    22    30    31   ar
    23    31    34    1
    24    34    35    1
    25    34    36    1
    26    34    37    1
    27    31    32   ar
    28    32    33   ar
    29    26    27    1
    30     6     7   ar
    31     7     8    1
    32    14    15   ar
    33    15    16   ar
    34    16    17   ar
    35    17    18   ar
    36    18    19   ar
    37    19    10   ar
    38    18    13   ar
    39     7     3   ar
    40    27    22    1
    41    26    24    1
    42    33    28   ar
@<TRIPOS>MOLECULE
*****
 37 42 0 0 0
SMALL
GASTEIGER

@<TRIPOS>ATOM
      1 C         142.6344  143.8897  158.6370 C.3     1  UNL1        0.0666
      2 S         143.6445  142.7930  158.8011 S.3     1  UNL1       -0.0756
      3 C         143.1654  140.2565  161.6999 C.ar    1  UNL1        0.1669
      4 N         142.6565  139.4628  160.5331 N.ar    1  UNL1       -0.1282
      5 N         142.7740  140.3164  159.3052 N.ar    1  UNL1       -0.1221
      6 C         143.3556  141.6376  159.7131 C.ar    1  UNL1        0.1932
      7 N         143.5975  141.6005  161.1931 N.ar    1  UNL1       -0.2884
      8 C         144.1707  142.7124  162.0208 C.3     1  UNL1        0.1340
      9 C         138.1883  139.1922  166.3200 C.3     1  UNL1        0.0521
     10 C         139.4489  139.3412  165.5209 C.ar    1  UNL1        0.0593
     11 C         139.3836  139.8095  164.0974 C.ar    1  UNL1        0.0147
     12 C         140.6442  139.9585  163.2982 C.ar    1  UNL1        0.0028
     13 C         141.9702  139.6392  163.9225 C.ar    1  UNL1        0.0206
     14 C         143.2308  139.7882  163.1234 C.ar    1  UNL1        0.0374
     15 C         144.5567  139.4690  163.7477 C.ar    1  UNL1        0.0031
     16 C         144.6221  139.0007  165.1713 C.ar    1  UNL1        0.0016
     17 C         143.3615  138.8517  165.9705 C.ar    1  UNL1        0.0191
     18 C         142.0355  139.1710  165.3461 C.ar    1  UNL1        0.0810
     19 N         140.7749  139.0220  166.1452 N.ar    1  UNL1       -0.2497
     20 C         141.4275  143.9369  159.5263 C.3     1  UNL1        0.0294
     21 C         141.4378  144.7901  160.7600 C.3     1  UNL1        0.0730
     22 N         140.5815  144.4204  161.9348 N.3     1  UNL1       -0.2724
     23 C         139.0872  144.5295  162.0056 C.3     1  UNL1        0.0724
     24 C         138.6514  144.0533  163.3596 C.3     1  UNL1        0.0214
     25 C         138.5223  143.5314  164.7600 C.3     1  UNL1        0.0072
     26 C         139.8764  143.6499  164.1256 C.3     1  UNL1        0.0350
     27 C         141.0693  143.8768  163.2450 C.3     1  UNL1        0.0761
     28 C         140.6472  143.1311  165.3031 C.ar    1  UNL1       -0.0215
     29 C         139.9235  142.7185  166.5505 C.ar    1  UNL1       -0.0043
     30 C         140.6943  142.1996  167.7280 C.ar    1  UNL1        0.0035
     31 C         142.1889  142.0935  167.6583 C.ar    1  UNL1        0.0714
     32 C         142.9126  142.5061  166.4109 C.ar    1  UNL1        0.0035
     33 C         142.1418  143.0249  165.2334 C.ar    1  UNL1       -0.0043
     34 C         142.9597  141.5746  168.8358 C.3     1  UNL1        0.4186
     35 F         143.7305  141.0558  170.0134 F       1  UNL1       -0.1659
     36 F         141.8842  140.5613  169.0934 F       1  UNL1       -0.1659
     37 F         144.0353  142.5880  168.5782 F       1  UNL1       -0.1659
@<TRIPOS>BOND
     1     9    10    1
     2    10    11   ar
     3    11    12   ar
     4    12    13   ar
     5    13    14   ar
     6    14     3    1
     7     3     4   ar
     8     4     5   ar
     9     5     6   ar
    10     6     2    1
    11     2     1    1
    12     1    20    1
    13    20    21    1
    14    21    22    1
    15    22    23    1
    16    23    24    1
    17    24    25    1
    18    25    26    1
    19    26    28    1
    20    28    29   ar
    21    29    30   ar
    22    30    31   ar
    23    31    34    1
    24    34    35    1
    25    34    36    1
    26    34    37    1
    27    31    32   ar
    28    32    33   ar
    29    26    27    1
    30     6     7   ar
    31     7     8    1
    32    14    15   ar
    33    15    16   ar
    34    16    17   ar
    35    17    18   ar
    36    18    19   ar
    37    19    10   ar
    38    18    13   ar
    39     7     3   ar
    40    27    22    1
    41    26    24    1
    42    33    28   ar
@<TRIPOS>MOLECULE
*****
 37 42 0 0 0
SMALL
GASTEIGER

@<TRIPOS>ATOM
      1 C         140.3682  145.2031  158.8827 C.3     1  UNL1        0.0666
      2 S         140.4860  143.8071  158.3466 S.3     1  UNL1       -0.0756
      3 C         139.9781  140.7225  160.6473 C.ar    1  UNL1        0.1669
      4 N         138.5685  140.9953  160.2128 N.ar    1  UNL1       -0.1282
      5 N         138.5872  142.1840  159.2981 N.ar    1  UNL1       -0.1221
      6 C         140.0083  142.6459  159.1672 C.ar    1  UNL1        0.1932
      7 N         140.8680  141.7427  160.0011 N.ar    1  UNL1       -0.2884
      8 C         142.3561  141.8421  160.1608 C.3     1  UNL1        0.1340
      9 C         137.8237  138.9762  166.9369 C.3     1  UNL1        0.0521
     10 C         138.4728  139.1378  165.5943 C.ar    1  UNL1        0.0593
     11 C         138.0307  140.2376  164.6750 C.ar    1  UNL1        0.0147
     12 C         138.6799  140.3992  163.3325 C.ar    1  UNL1        0.0028
     13 C         139.7711  139.4611  162.9092 C.ar    1  UNL1        0.0206
     14 C         140.4202  139.6228  161.5666 C.ar    1  UNL1        0.0374
     15 C         141.5114  138.6847  161.1433 C.ar    1  UNL1        0.0031
     16 C         141.9535  137.5849  162.0626 C.ar    1  UNL1        0.0016
     17 C         141.3044  137.4232  163.4051 C.ar    1  UNL1        0.0191
     18 C         140.2131  138.3614  163.8284 C.ar    1  UNL1        0.0810
     19 N         139.5640  138.1997  165.1710 N.ar    1  UNL1       -0.2497
     20 C         140.0731  145.4259  160.3364 C.3     1  UNL1        0.0294
     21 C         141.1168  145.1191  161.3691 C.3     1  UNL1        0.0730
     22 N         140.7090  144.6027  162.7172 N.3     1  UNL1       -0.2724
     23 C         139.6429  145.1835  163.5981 C.3     1  UNL1        0.0724
     24 C         139.5707  144.3547  164.8463 C.3     1  UNL1        0.0214
     25 C         139.7284  143.3612  165.9590 C.3     1  UNL1        0.0072
     26 C         140.5923  143.2619  164.7368 C.3     1  UNL1        0.0350
     27 C         141.2958  143.4152  163.4209 C.3     1  UNL1        0.0761
     28 C         141.3597  142.0535  165.1850 C.ar    1  UNL1       -0.0215
     29 C         142.4242  141.4714  164.3031 C.ar    1  UNL1       -0.0043
     30 C         143.1916  140.2630  164.7513 C.ar    1  UNL1        0.0035
     31 C         142.8945  139.6367  166.0816 C.ar    1  UNL1        0.0714
     32 C         141.8300  140.2189  166.9635 C.ar    1  UNL1        0.0035
     33 C         141.0626  141.4272  166.5152 C.ar    1  UNL1       -0.0043
     34 C         143.6619  138.4283  166.5298 C.3     1  UNL1        0.4186
     35 F         144.4293  137.2200  166.9780 F       1  UNL1       -0.1659
     36 F         143.0452  138.5421  167.8924 F       1  UNL1       -0.1659
     37 F         144.2786  138.3145  165.1672 F       1  UNL1       -0.1659
@<TRIPOS>BOND
     1     9    10    1
     2    10    11   ar
     3    11    12   ar
     4    12    13   ar
     5    13    14   ar
     6    14     3    1
     7     3     4   ar
     8     4     5   ar
     9     5     6   ar
    10     6     2    1
    11     2     1    1
    12     1    20    1
    13    20    21    1
    14    21    22    1
    15    22    23    1
    16    23    24    1
    17    24    25    1
    18    25    26    1
    19    26    28    1
    20    28    29   ar
    21    29    30   ar
    22    30    31   ar
    23    31    34    1
    24    34    35    1
    25    34    36    1
    26    34    37    1
    27    31    32   ar
    28    32    33   ar
    29    26    27    1
    30     6     7   ar
    31     7     8    1
    32    14    15   ar
    33    15    16   ar
    34    16    17   ar
    35    17    18   ar
    36    18    19   ar
    37    19    10   ar
    38    18    13   ar
    39     7     3   ar
    40    27    22    1
    41    26    24    1
    42    33    28   ar
@<TRIPOS>MOLECULE
*****
 37 42 0 0 0
SMALL
GASTEIGER

@<TRIPOS>ATOM
      1 C         142.3578  143.3726  158.4671 C.3     1  UNL1        0.0666
      2 S         143.6530  142.6696  158.7470 S.3     1  UNL1       -0.0756
      3 C         143.7499  140.9924  162.2461 C.ar    1  UNL1        0.1669
      4 N         145.0439  141.7512  162.2523 N.ar    1  UNL1       -0.1282
      5 N         145.1651  142.4718  160.9423 N.ar    1  UNL1       -0.1221
      6 C         143.9460  142.1584  160.1264 C.ar    1  UNL1        0.1932
      7 N         143.0714  141.2441  160.9322 N.ar    1  UNL1       -0.2884
      8 C         141.7502  140.6805  160.4999 C.3     1  UNL1        0.1340
      9 C         142.7642  142.3627  168.9095 C.3     1  UNL1        0.0521
     10 C         142.8798  141.8052  167.5217 C.ar    1  UNL1        0.0593
     11 C         143.4033  142.6647  166.4094 C.ar    1  UNL1        0.0147
     12 C         143.5188  142.1073  165.0216 C.ar    1  UNL1        0.0028
     13 C         143.1109  140.6904  164.7461 C.ar    1  UNL1        0.0206
     14 C         143.2264  140.1330  163.3584 C.ar    1  UNL1        0.0374
     15 C         142.8185  138.7161  163.0829 C.ar    1  UNL1        0.0031
     16 C         142.2950  137.8565  164.1952 C.ar    1  UNL1        0.0016
     17 C         142.1795  138.4139  165.5830 C.ar    1  UNL1        0.0191
     18 C         142.5874  139.8309  165.8584 C.ar    1  UNL1        0.0810
     19 N         142.4719  140.3883  167.2462 N.ar    1  UNL1       -0.2497
     20 C         141.8871  144.4680  159.3773 C.3     1  UNL1        0.0294
     21 C         140.5508  144.3615  160.0503 C.3     1  UNL1        0.0730
     22 N         140.4697  144.2600  161.5448 N.3     1  UNL1       -0.2724
     23 C         140.7763  145.3568  162.5208 C.3     1  UNL1        0.0724
     24 C         140.5638  144.8186  163.9047 C.3     1  UNL1        0.0214
     25 C         140.2746  144.0159  165.1385 C.3     1  UNL1        0.0072
     26 C         140.1259  143.3891  163.7839 C.3     1  UNL1        0.0350
     27 C         140.0677  143.0438  162.3253 C.3     1  UNL1        0.0761
     28 C         139.6928  142.0419  164.2813 C.ar    1  UNL1       -0.0215
     29 C         139.4737  141.8188  165.7483 C.ar    1  UNL1       -0.0043
     30 C         139.0406  140.4716  166.2457 C.ar    1  UNL1        0.0035
     31 C         138.8266  139.3473  165.2761 C.ar    1  UNL1        0.0714
     32 C         139.0457  139.5704  163.8090 C.ar    1  UNL1        0.0035
     33 C         139.4788  140.9176  163.3116 C.ar    1  UNL1       -0.0043
     34 C         138.3935  138.0001  165.7735 C.3     1  UNL1        0.4186
     35 F         137.9604  136.6529  166.2709 F       1  UNL1       -0.1659
     36 F         138.7665  137.3929  164.4536 F       1  UNL1       -0.1659
     37 F         138.0205  138.6073  167.0933 F       1  UNL1       -0.1659
@<TRIPOS>BOND
     1     9    10    1
     2    10    11   ar
     3    11    12   ar
     4    12    13   ar
     5    13    14   ar
     6    14     3    1
     7     3     4   ar
     8     4     5   ar
     9     5     6   ar
    10     6     2    1
    11     2     1    1
    12     1    20    1
    13    20    21    1
    14    21    22    1
    15    22    23    1
    16    23    24    1
    17    24    25    1
    18    25    26    1
    19    26    28    1
    20    28    29   ar
    21    29    30   ar
    22    30    31   ar
    23    31    34    1
    24    34    35    1
    25    34    36    1
    26    34    37    1
    27    31    32   ar
    28    32    33   ar
    29    26    27    1
    30     6     7   ar
    31     7     8    1
    32    14    15   ar
    33    15    16   ar
    34    16    17   ar
    35    17    18   ar
    36    18    19   ar
    37    19    10   ar
    38    18    13   ar
    39     7     3   ar
    40    27    22    1
    41    26    24    1
    42    33    28   ar
@<TRIPOS>MOLECULE
*****
 37 42 0 0 0
SMALL
GASTEIGER

@<TRIPOS>ATOM
      1 C         140.2303  144.1227  158.4873 C.3     1  UNL1        0.0666
      2 S         139.2146  143.0264  158.6152 S.3     1  UNL1       -0.0756
      3 C         139.1196  140.8719  161.8424 C.ar    1  UNL1        0.1669
      4 N         138.0754  141.9034  162.1517 N.ar    1  UNL1       -0.1282
      5 N         137.9838  142.8360  160.9804 N.ar    1  UNL1       -0.1221
      6 C         138.9715  142.3810  159.9472 C.ar    1  UNL1        0.1932
      7 N         139.6735  141.1670  160.4800 N.ar    1  UNL1       -0.2884
      8 C         140.7417  140.3855  159.7742 C.3     1  UNL1        0.1340
      9 C         145.2422  139.2951  164.5401 C.3     1  UNL1        0.0521
     10 C         143.8158  139.4072  164.0897 C.ar    1  UNL1        0.0593
     11 C         143.3987  140.5356  163.1938 C.ar    1  UNL1        0.0147
     12 C         141.9724  140.6477  162.7434 C.ar    1  UNL1        0.0028
     13 C         140.9631  139.6314  163.1887 C.ar    1  UNL1        0.0206
     14 C         139.5368  139.7434  162.7383 C.ar    1  UNL1        0.0374
     15 C         138.5275  138.7271  163.1836 C.ar    1  UNL1        0.0031
     16 C         138.9446  137.5986  164.0795 C.ar    1  UNL1        0.0016
     17 C         140.3710  137.4865  164.5300 C.ar    1  UNL1        0.0191
     18 C         141.3802  138.5029  164.0846 C.ar    1  UNL1        0.0810
     19 N         142.8066  138.3908  164.5351 N.ar    1  UNL1       -0.2497
     20 C         140.4177  145.1056  159.6048 C.3     1  UNL1        0.0294
     21 C         141.2118  144.7198  160.8175 C.3     1  UNL1        0.0730
     22 N         140.5451  144.6490  162.1593 N.3     1  UNL1       -0.2724
     23 C         139.4297  145.5309  162.6371 C.3     1  UNL1        0.0724
     24 C         139.0719  145.1109  164.0320 C.3     1  UNL1        0.0214
     25 C         138.9416  144.4790  165.3861 C.3     1  UNL1        0.0072
     26 C         139.9661  143.9696  164.4162 C.3     1  UNL1        0.0350
     27 C         140.8766  143.6841  163.2588 C.3     1  UNL1        0.0761
     28 C         140.5118  142.8981  165.3129 C.ar    1  UNL1       -0.0215
     29 C         139.6006  141.8364  165.8536 C.ar    1  UNL1       -0.0043
     30 C         140.1463  140.7650  166.7504 C.ar    1  UNL1        0.0035
     31 C         141.6034  140.7552  167.1065 C.ar    1  UNL1        0.0714
     32 C         142.5147  141.8169  166.5658 C.ar    1  UNL1        0.0035
     33 C         141.9689  142.8883  165.6691 C.ar    1  UNL1       -0.0043
     34 C         142.1491  139.6837  168.0032 C.3     1  UNL1        0.4186
     35 F         142.6948  138.6123  168.9000 F       1  UNL1       -0.1659
     36 F         143.4818  139.7937  167.3236 F       1  UNL1       -0.1659
     37 F         140.8165  139.5738  168.6829 F       1  UNL1       -0.1659
@<TRIPOS>BOND
     1     9    10    1
     2    10    11   ar
     3    11    12   ar
     4    12    13   ar
     5    13    14   ar
     6    14     3    1
     7     3     4   ar
     8     4     5   ar
     9     5     6   ar
    10     6     2    1
    11     2     1    1
    12     1    20    1
    13    20    21    1
    14    21    22    1
    15    22    23    1
    16    23    24    1
    17    24    25    1
    18    25    26    1
    19    26    28    1
    20    28    29   ar
    21    29    30   ar
    22    30    31   ar
    23    31    34    1
    24    34    35    1
    25    34    36    1
    26    34    37    1
    27    31    32   ar
    28    32    33   ar
    29    26    27    1
    30     6     7   ar
    31     7     8    1
    32    14    15   ar
    33    15    16   ar
    34    16    17   ar
    35    17    18   ar
    36    18    19   ar
    37    19    10   ar
    38    18    13   ar
    39     7     3   ar
    40    27    22    1
    41    26    24    1
    42    33    28   ar
@<TRIPOS>MOLECULE
*****
 37 42 0 0 0
SMALL
GASTEIGER

@<TRIPOS>ATOM
      1 C         140.4846  141.8047  157.1348 C.3     1  UNL1        0.0666
      2 S         140.3610  143.2149  157.6306 S.3     1  UNL1       -0.0756
      3 C         140.8606  143.7939  161.4360 C.ar    1  UNL1        0.1669
      4 N         142.1154  144.4022  160.8831 N.ar    1  UNL1       -0.1282
      5 N         142.0810  144.2593  159.3903 N.ar    1  UNL1       -0.1221
      6 C         140.8049  143.5628  159.0206 C.ar    1  UNL1        0.1932
      7 N         140.0507  143.2752  160.2850 N.ar    1  UNL1       -0.2884
      8 C         138.7202  142.5893  160.3813 C.3     1  UNL1        0.1340
      9 C         142.7691  139.3938  166.3601 C.3     1  UNL1        0.0521
     10 C         142.1974  140.4748  165.4915 C.ar    1  UNL1        0.0593
     11 C         142.5757  140.5509  164.0420 C.ar    1  UNL1        0.0147
     12 C         142.0040  141.6319  163.1734 C.ar    1  UNL1        0.0028
     13 C         141.0540  142.6369  163.7542 C.ar    1  UNL1        0.0206
     14 C         140.4823  143.7179  162.8855 C.ar    1  UNL1        0.0374
     15 C         139.5322  144.7228  163.4663 C.ar    1  UNL1        0.0031
     16 C         139.1538  144.6468  164.9159 C.ar    1  UNL1        0.0016
     17 C         139.7255  143.5658  165.7845 C.ar    1  UNL1        0.0191
     18 C         140.6756  142.5608  165.2036 C.ar    1  UNL1        0.0810
     19 N         141.2473  141.4798  166.0723 N.ar    1  UNL1       -0.2497
     20 C         139.3722  140.8265  157.3709 C.3     1  UNL1        0.0294
     21 C         139.6790  139.3678  157.5380 C.3     1  UNL1        0.0730
     22 N         140.4843  138.9007  158.7143 N.3     1  UNL1       -0.2724
     23 C         141.9010  138.4094  158.6736 C.3     1  UNL1        0.0724
     24 C         142.3065  138.0480  160.0718 C.3     1  UNL1        0.0214
     25 C         142.4209  137.7776  161.5428 C.3     1  UNL1        0.0072
     26 C         141.1405  138.3160  160.9766 C.3     1  UNL1        0.0350
     27 C         140.0143  138.8430  160.1376 C.3     1  UNL1        0.0761
     28 C         140.4028  138.3709  162.2815 C.ar    1  UNL1       -0.0215
     29 C         139.3240  139.3917  162.4908 C.ar    1  UNL1       -0.0043
     30 C         138.5863  139.4466  163.7957 C.ar    1  UNL1        0.0035
     31 C         138.9275  138.4805  164.8914 C.ar    1  UNL1        0.0714
     32 C         140.0063  137.4597  164.6820 C.ar    1  UNL1        0.0035
     33 C         140.7440  137.4048  163.3771 C.ar    1  UNL1       -0.0043
     34 C         138.1898  138.5354  166.1963 C.3     1  UNL1        0.4186
     35 F         137.4521  138.5902  167.5012 F       1  UNL1       -0.1659
     36 F         138.0573  137.0413  166.1842 F       1  UNL1       -0.1659
     37 F         138.3223  140.0295  166.2084 F       1  UNL1       -0.1659
@<TRIPOS>BOND
     1     9    10    1
     2    10    11   ar
     3    11    12   ar
     4    12    13   ar
     5    13    14   ar
     6    14     3    1
     7     3     4   ar
     8     4     5   ar
     9     5     6   ar
    10     6     2    1
    11     2     1    1
    12     1    20    1
    13    20    21    1
    14    21    22    1
    15    22    23    1
    16    23    24    1
    17    24    25    1
    18    25    26    1
    19    26    28    1
    20    28    29   ar
    21    29    30   ar
    22    30    31   ar
    23    31    34    1
    24    34    35    1
    25    34    36    1
    26    34    37    1
    27    31    32   ar
    28    32    33   ar
    29    26    27    1
    30     6     7   ar
    31     7     8    1
    32    14    15   ar
    33    15    16   ar
    34    16    17   ar
    35    17    18   ar
    36    18    19   ar
    37    19    10   ar
    38    18    13   ar
    39     7     3   ar
    40    27    22    1
    41    26    24    1
    42    33    28   ar
@<TRIPOS>MOLECULE
*****
 37 42 0 0 0
SMALL
GASTEIGER

@<TRIPOS>ATOM
      1 C         139.0422  139.7777  157.4262 C.3     1  UNL1        0.0666
      2 S         138.0495  140.7895  157.9170 S.3     1  UNL1       -0.0756
      3 C         138.8818  142.9873  161.0061 C.ar    1  UNL1        0.1669
      4 N         139.3459  143.8721  159.8873 N.ar    1  UNL1       -0.1282
      5 N         139.0906  143.1566  158.5939 N.ar    1  UNL1       -0.1221
      6 C         138.4687  141.8294  158.9134 C.ar    1  UNL1        0.1932
      7 N         138.3397  141.7248  160.4042 N.ar    1  UNL1       -0.2884
      8 C         137.7688  140.5619  161.1603 C.3     1  UNL1        0.1340
      9 C         144.0603  142.4690  165.4967 C.3     1  UNL1        0.0521
     10 C         142.7822  142.6789  164.7399 C.ar    1  UNL1        0.0593
     11 C         142.7159  142.3577  163.2763 C.ar    1  UNL1        0.0147
     12 C         141.4378  142.5675  162.5196 C.ar    1  UNL1        0.0028
     13 C         140.2262  143.0986  163.2265 C.ar    1  UNL1        0.0206
     14 C         138.9482  143.3085  162.4698 C.ar    1  UNL1        0.0374
     15 C         137.7365  143.8396  163.1767 C.ar    1  UNL1        0.0031
     16 C         137.8029  144.1608  164.6405 C.ar    1  UNL1        0.0016
     17 C         139.0809  143.9509  165.3972 C.ar    1  UNL1        0.0191
     18 C         140.2926  143.4198  164.6902 C.ar    1  UNL1        0.0810
     19 N         141.5706  143.2100  165.4469 N.ar    1  UNL1       -0.2497
     20 C         140.2462  139.4444  158.2566 C.3     1  UNL1        0.0294
     21 C         140.1297  138.4659  159.3874 C.3     1  UNL1        0.0730
     22 N         141.1102  138.5104  160.5218 N.3     1  UNL1       -0.2724
     23 C         142.5797  138.2241  160.4286 C.3     1  UNL1        0.0724
     24 C         143.1711  138.3857  161.7976 C.3     1  UNL1        0.0214
     25 C         143.4682  138.6174  163.2496 C.3     1  UNL1        0.0072
     26 C         142.0671  138.7719  162.7368 C.3     1  UNL1        0.0350
     27 C         140.7934  138.8489  161.9483 C.3     1  UNL1        0.0761
     28 C         141.4573  139.1428  164.0561 C.ar    1  UNL1       -0.0215
     29 C         140.0072  139.5186  164.1331 C.ar    1  UNL1       -0.0043
     30 C         139.3975  139.8894  165.4524 C.ar    1  UNL1        0.0035
     31 C         140.2379  139.8846  166.6949 C.ar    1  UNL1        0.0714
     32 C         141.6880  139.5089  166.6179 C.ar    1  UNL1        0.0035
     33 C         142.2977  139.1380  165.2986 C.ar    1  UNL1       -0.0043
     34 C         139.6282  140.2555  168.0142 C.3     1  UNL1        0.4186
     35 F         139.0184  140.6264  169.3336 F       1  UNL1       -0.1659
     36 F         138.4652  139.3515  167.7309 F       1  UNL1       -0.1659
     37 F         140.7911  141.1595  168.2975 F       1  UNL1       -0.1659
@<TRIPOS>BOND
     1     9    10    1
     2    10    11   ar
     3    11    12   ar
     4    12    13   ar
     5    13    14   ar
     6    14     3    1
     7     3     4   ar
     8     4     5   ar
     9     5     6   ar
    10     6     2    1
    11     2     1    1
    12     1    20    1
    13    20    21    1
    14    21    22    1
    15    22    23    1
    16    23    24    1
    17    24    25    1
    18    25    26    1
    19    26    28    1
    20    28    29   ar
    21    29    30   ar
    22    30    31   ar
    23    31    34    1
    24    34    35    1
    25    34    36    1
    26    34    37    1
    27    31    32   ar
    28    32    33   ar
    29    26    27    1
    30     6     7   ar
    31     7     8    1
    32    14    15   ar
    33    15    16   ar
    34    16    17   ar
    35    17    18   ar
    36    18    19   ar
    37    19    10   ar
    38    18    13   ar
    39     7     3   ar
    40    27    22    1
    41    26    24    1
    42    33    28   ar
@<TRIPOS>MOLECULE
*****
 37 42 0 0 0
SMALL
GASTEIGER

@<TRIPOS>ATOM
      1 C         137.9165  141.1989  158.4784 C.3     1  UNL1        0.0666
      2 S         138.5936  142.5205  158.6902 S.3     1  UNL1       -0.0756
      3 C         140.4411  143.4761  161.9673 C.ar    1  UNL1        0.1669
      4 N         139.0088  143.6091  162.3926 N.ar    1  UNL1       -0.1282
      5 N         138.1424  143.2673  161.2168 N.ar    1  UNL1       -0.1221
      6 C         139.0392  142.9231  160.0647 C.ar    1  UNL1        0.1932
      7 N         140.4599  143.0521  160.5286 N.ar    1  UNL1       -0.2884
      8 C         141.6844  142.8012  159.6993 C.3     1  UNL1        0.1340
      9 C         144.9699  139.1082  164.7353 C.3     1  UNL1        0.0521
     10 C         144.1383  140.2620  164.2588 C.ar    1  UNL1        0.0593
     11 C         142.9359  140.0145  163.3968 C.ar    1  UNL1        0.0147
     12 C         142.1043  141.1684  162.9203 C.ar    1  UNL1        0.0028
     13 C         142.4751  142.5697  163.3058 C.ar    1  UNL1        0.0206
     14 C         141.6434  143.7236  162.8293 C.ar    1  UNL1        0.0374
     15 C         142.0142  145.1250  163.2149 C.ar    1  UNL1        0.0031
     16 C         143.2165  145.3725  164.0769 C.ar    1  UNL1        0.0016
     17 C         144.0481  144.2187  164.5534 C.ar    1  UNL1        0.0191
     18 C         143.6774  142.8173  164.1678 C.ar    1  UNL1        0.0810
     19 N         144.5090  141.6634  164.6443 N.ar    1  UNL1       -0.2497
     20 C         138.1845  140.0599  159.4169 C.3     1  UNL1        0.0294
     21 C         137.4388  139.9666  160.7151 C.3     1  UNL1        0.0730
     22 N         138.0680  139.2851  161.8941 N.3     1  UNL1       -0.2724
     23 C         138.2520  137.8061  162.0627 C.3     1  UNL1        0.0724
     24 C         138.9213  137.5700  163.3842 C.3     1  UNL1        0.0214
     25 C         139.5810  137.6464  164.7292 C.3     1  UNL1        0.0072
     26 C         139.1509  138.9031  164.0322 C.3     1  UNL1        0.0350
     27 C         138.6235  139.9632  163.1113 C.3     1  UNL1        0.0761
     28 C         139.6165  139.8439  165.1037 C.ar    1  UNL1       -0.0215
     29 C         139.2079  141.2866  165.0646 C.ar    1  UNL1       -0.0043
     30 C         139.6736  142.2273  166.1361 C.ar    1  UNL1        0.0035
     31 C         140.5478  141.7254  167.2469 C.ar    1  UNL1        0.0714
     32 C         140.9564  140.2827  167.2860 C.ar    1  UNL1        0.0035
     33 C         140.4908  139.3419  166.2144 C.ar    1  UNL1       -0.0043
     34 C         141.0135  142.6661  168.3184 C.3     1  UNL1        0.4186
     35 F         141.4791  143.6069  169.3899 F       1  UNL1       -0.1659
     36 F         139.9763  143.6631  167.8938 F       1  UNL1       -0.1659
     37 F         142.0506  141.6692  168.7430 F       1  UNL1       -0.1659
@<TRIPOS>BOND
     1     9    10    1
     2    10    11   ar
     3    11    12   ar
     4    12    13   ar
     5    13    14   ar
     6    14     3    1
     7     3     4   ar
     8     4     5   ar
     9     5     6   ar
    10     6     2    1
    11     2     1    1
    12     1    20    1
    13    20    21    1
    14    21    22    1
    15    22    23    1
    16    23    24    1
    17    24    25    1
    18    25    26    1
    19    26    28    1
    20    28    29   ar
    21    29    30   ar
    22    30    31   ar
    23    31    34    1
    24    34    35    1
    25    34    36    1
    26    34    37    1
    27    31    32   ar
    28    32    33   ar
    29    26    27    1
    30     6     7   ar
    31     7     8    1
    32    14    15   ar
    33    15    16   ar
    34    16    17   ar
    35    17    18   ar
    36    18    19   ar
    37    19    10   ar
    38    18    13   ar
    39     7     3   ar
    40    27    22    1
    41    26    24    1
    42    33    28   ar
@<TRIPOS>MOLECULE
*****
 37 42 0 0 0
SMALL
GASTEIGER

@<TRIPOS>ATOM
      1 C         141.6309  144.2354  156.4392 C.3     1  UNL1        0.0666
      2 S         142.7037  143.4174  157.0950 S.3     1  UNL1       -0.0756
      3 C         143.3641  142.7334  160.8582 C.ar    1  UNL1        0.1669
      4 N         142.7181  144.0858  160.9184 N.ar    1  UNL1       -0.1282
      5 N         142.3920  144.5067  159.5161 N.ar    1  UNL1       -0.1221
      6 C         142.8366  143.4144  158.5891 C.ar    1  UNL1        0.1932
      7 N         143.4374  142.3184  159.4186 N.ar    1  UNL1       -0.2884
      8 C         144.0107  141.0331  158.8996 C.3     1  UNL1        0.1340
      9 C         140.3136  137.7675  164.5030 C.3     1  UNL1        0.0521
     10 C         141.1981  138.8096  163.8851 C.ar    1  UNL1        0.0593
     11 C         140.7108  139.6070  162.7118 C.ar    1  UNL1        0.0147
     12 C         141.5953  140.6491  162.0940 C.ar    1  UNL1        0.0028
     13 C         142.9669  140.8939  162.6494 C.ar    1  UNL1        0.0206
     14 C         143.8514  141.9360  162.0315 C.ar    1  UNL1        0.0374
     15 C         145.2230  142.1807  162.5870 C.ar    1  UNL1        0.0031
     16 C         145.7104  141.3833  163.7604 C.ar    1  UNL1        0.0016
     17 C         144.8259  140.3412  164.3783 C.ar    1  UNL1        0.0191
     18 C         143.4542  140.0965  163.8227 C.ar    1  UNL1        0.0810
     19 N         142.5697  139.0543  164.4406 N.ar    1  UNL1       -0.2497
     20 C         140.1867  143.9097  156.6800 C.3     1  UNL1        0.0294
     21 C         139.7108  142.4908  156.5777 C.3     1  UNL1        0.0730
     22 N         139.1256  141.8077  157.7782 N.3     1  UNL1       -0.2724
     23 C         138.5465  140.4244  157.8102 C.3     1  UNL1        0.0724
     24 C         138.0798  140.1496  159.2091 C.3     1  UNL1        0.0214
     25 C         137.7183  140.1648  160.6648 C.3     1  UNL1        0.0072
     26 C         138.3704  141.3632  160.0414 C.3     1  UNL1        0.0350
     27 C         139.0167  142.3879  159.1571 C.3     1  UNL1        0.0761
     28 C         138.3979  142.1939  161.2900 C.ar    1  UNL1       -0.0215
     29 C         139.1929  143.4653  161.3277 C.ar    1  UNL1       -0.0043
     30 C         139.2204  144.2961  162.5763 C.ar    1  UNL1        0.0035
     31 C         138.4529  143.8555  163.7874 C.ar    1  UNL1        0.0714
     32 C         137.6579  142.5841  163.7498 C.ar    1  UNL1        0.0035
     33 C         137.6304  141.7533  162.5011 C.ar    1  UNL1       -0.0043
     34 C         138.4804  144.6862  165.0360 C.3     1  UNL1        0.4186
     35 F         138.5079  145.5170  166.2846 F       1  UNL1       -0.1659
     36 F         139.9178  145.0280  164.7770 F       1  UNL1       -0.1659
     37 F         137.0430  144.3445  165.2950 F       1  UNL1       -0.1659
@<TRIPOS>BOND
     1     9    10    1
     2    10    11   ar
     3    11    12   ar
     4    12    13   ar
     5    13    14   ar
     6    14     3    1
     7     3     4   ar
     8     4     5   ar
     9     5     6   ar
    10     6     2    1
    11     2     1    1
    12     1    20    1
    13    20    21    1
    14    21    22    1
    15    22    23    1
    16    23    24    1
    17    24    25    1
    18    25    26    1
    19    26    28    1
    20    28    29   ar
    21    29    30   ar
    22    30    31   ar
    23    31    34    1
    24    34    35    1
    25    34    36    1
    26    34    37    1
    27    31    32   ar
    28    32    33   ar
    29    26    27    1
    30     6     7   ar
    31     7     8    1
    32    14    15   ar
    33    15    16   ar
    34    16    17   ar
    35    17    18   ar
    36    18    19   ar
    37    19    10   ar
    38    18    13   ar
    39     7     3   ar
    40    27    22    1
    41    26    24    1
    42    33    28   ar
