@<TRIPOS>MOLECULE
*****
 37 42 0 0 0
SMALL
GASTEIGER

@<TRIPOS>ATOM
      1 C         139.9799  144.7784  158.5098 C.3     1  UNL1        0.0666
      2 C         140.7771  145.5036  159.5532 C.3     1  UNL1        0.0294
      3 C         140.1355  145.8910  160.8526 C.3     1  UNL1        0.0730
      4 C         142.3520  141.0873  168.9737 C.ar    1  UNL1        0.2057
      5 N         143.2975  141.4117  167.8552 N.ar    1  UNL1       -0.2121
      6 C         142.5331  142.1617  166.8050 C.ar    1  UNL1        0.1182
      7 C         142.9450  142.7360  165.4818 C.ar    1  UNL1        0.0178
      8 C         141.9389  143.4494  164.6280 C.ar    1  UNL1       -0.0230
      9 C         140.5211  143.5886  165.0974 C.ar    1  UNL1       -0.0216
     10 C         140.1092  143.0144  166.4205 C.ar    1  UNL1        0.0346
     11 C         141.1152  142.3010  167.2743 C.ar    1  UNL1        0.1640
     12 O         141.0034  141.6369  168.6147 O.2     1  UNL1       -0.4384
     13 C         139.3688  144.2566  164.4073 C.3     1  UNL1        0.0434
     14 C         139.3499  144.9505  163.0775 C.3     1  UNL1        0.0768
     15 N         140.4785  145.1475  162.1094 N.3     1  UNL1       -0.2720
     16 C         141.9048  144.6996  162.2319 C.3     1  UNL1        0.0768
     17 C         142.5548  143.9438  163.3528 C.3     1  UNL1        0.0434
     18 C         142.5024  138.8579  170.2993 C.3     1  UNL1        0.0102
     19 C         142.6951  140.3439  170.2306 C.3     1  UNL1        0.0853
     20 S         140.1189  143.2927  158.3581 S.3     1  UNL1       -0.0756
     21 C         140.5416  142.4555  159.5288 C.ar    1  UNL1        0.1932
     22 N         141.8933  141.8362  159.7275 N.ar    1  UNL1       -0.1221
     23 N         141.8740  141.0886  161.0278 N.ar    1  UNL1       -0.1282
     24 C         140.5104  141.2459  161.6327 C.ar    1  UNL1        0.1669
     25 N         139.6869  142.0907  160.7062 N.ar    1  UNL1       -0.2884
     26 C         138.2594  142.4990  160.9198 C.3     1  UNL1        0.1340
     27 C         140.0509  140.6611  162.9353 C.ar    1  UNL1        0.0374
     28 C         138.6069  140.7530  163.3309 C.ar    1  UNL1        0.0031
     29 C         138.1475  140.1682  164.6335 C.ar    1  UNL1        0.0016
     30 C         139.1319  139.4915  165.5406 C.ar    1  UNL1        0.0191
     31 C         140.5758  139.3995  165.1450 C.ar    1  UNL1        0.0810
     32 N         141.5603  138.7228  166.0521 N.ar    1  UNL1       -0.2497
     33 C         143.0044  138.6308  165.6565 C.ar    1  UNL1        0.0593
     34 C         143.9889  137.9541  166.5636 C.3     1  UNL1        0.0521
     35 C         143.4638  139.2157  164.3538 C.ar    1  UNL1        0.0147
     36 C         142.4793  139.8924  163.4468 C.ar    1  UNL1        0.0028
     37 C         141.0353  139.9843  163.8424 C.ar    1  UNL1        0.0206
@<TRIPOS>BOND
     1    18    19    1
     2    19     4    1
     3     4     5   ar
     4     5     6   ar
     5     6     7   ar
     6     7     8   ar
     7     8     9   ar
     8     9    10   ar
     9    10    11   ar
    10    11    12   ar
    11     9    13    1
    12    13    14    1
    13    14    15    1
    14    15     3    1
    15     3     2    1
    16     2     1    1
    17     1    20    1
    18    20    21    1
    19    21    22   ar
    20    22    23   ar
    21    23    24   ar
    22    24    27    1
    23    27    28   ar
    24    28    29   ar
    25    29    30   ar
    26    30    31   ar
    27    31    32   ar
    28    32    33   ar
    29    33    34    1
    30    33    35   ar
    31    35    36   ar
    32    36    37   ar
    33    24    25   ar
    34    25    26    1
    35    15    16    1
    36    16    17    1
    37    12     4   ar
    38    25    21   ar
    39    11     6   ar
    40    37    27   ar
    41    17     8    1
    42    37    31   ar
@<TRIPOS>MOLECULE
*****
 37 42 0 0 0
SMALL
GASTEIGER

@<TRIPOS>ATOM
      1 C         140.7712  139.8906  169.1770 C.3     1  UNL1        0.0666
      2 C         139.8223  140.4509  168.1593 C.3     1  UNL1        0.0294
      3 C         139.0076  139.5262  167.3041 C.3     1  UNL1        0.0730
      4 C         138.0674  141.2674  157.8160 C.ar    1  UNL1        0.2057
      5 N         138.2157  142.3021  158.8919 N.ar    1  UNL1       -0.2121
      6 C         138.3301  141.5901  160.2071 C.ar    1  UNL1        0.1182
      7 C         138.4950  142.0941  161.6103 C.ar    1  UNL1        0.0178
      8 C         138.5822  141.1233  162.7505 C.ar    1  UNL1       -0.0230
      9 C         138.5045  139.6487  162.4875 C.ar    1  UNL1       -0.0216
     10 C         138.3397  139.1446  161.0844 C.ar    1  UNL1        0.0346
     11 C         138.2525  140.1154  159.9442 C.ar    1  UNL1        0.1640
     12 O         138.0901  139.9160  158.4664 O.2     1  UNL1       -0.4384
     13 C         138.5699  138.5185  163.4717 C.3     1  UNL1        0.0434
     14 C         138.7291  138.5840  164.9618 C.3     1  UNL1        0.0768
     15 N         138.8621  139.7957  165.8357 N.3     1  UNL1       -0.2720
     16 C         138.8689  141.2413  165.4356 C.3     1  UNL1        0.0768
     17 C         138.7443  141.8322  164.0625 C.3     1  UNL1        0.0434
     18 C         137.3017  142.8195  155.8783 C.3     1  UNL1        0.0102
     19 C         137.9219  141.5369  156.3476 C.3     1  UNL1        0.0853
     20 S         142.2516  139.9907  168.9572 S.3     1  UNL1       -0.0756
     21 C         142.8025  141.0247  168.0205 C.ar    1  UNL1        0.1932
     22 N         143.3418  142.3691  168.4099 N.ar    1  UNL1       -0.1221
     23 N         143.7835  143.0712  167.1601 N.ar    1  UNL1       -0.1282
     24 C         143.5171  142.1606  165.9982 C.ar    1  UNL1        0.1669
     25 N         142.9109  140.8957  166.5300 N.ar    1  UNL1       -0.2884
     26 C         142.4873  139.7102  165.7144 C.3     1  UNL1        0.1340
     27 C         143.8063  142.4619  164.5575 C.ar    1  UNL1        0.0374
     28 C         145.0228  141.8814  163.8994 C.ar    1  UNL1        0.0031
     29 C         145.3120  142.1827  162.4587 C.ar    1  UNL1        0.0016
     30 C         144.3847  143.0644  161.6761 C.ar    1  UNL1        0.0191
     31 C         143.1681  143.6449  162.3342 C.ar    1  UNL1        0.0810
     32 N         142.2408  144.5267  161.5516 N.ar    1  UNL1       -0.2497
     33 C         141.0242  145.1072  162.2097 C.ar    1  UNL1        0.0593
     34 C         140.0968  145.9890  161.4271 C.3     1  UNL1        0.0521
     35 C         140.7351  144.8058  163.6505 C.ar    1  UNL1        0.0147
     36 C         141.6625  143.9241  164.4330 C.ar    1  UNL1        0.0028
     37 C         142.8790  143.3436  163.7749 C.ar    1  UNL1        0.0206
@<TRIPOS>BOND
     1    18    19    1
     2    19     4    1
     3     4     5   ar
     4     5     6   ar
     5     6     7   ar
     6     7     8   ar
     7     8     9   ar
     8     9    10   ar
     9    10    11   ar
    10    11    12   ar
    11     9    13    1
    12    13    14    1
    13    14    15    1
    14    15     3    1
    15     3     2    1
    16     2     1    1
    17     1    20    1
    18    20    21    1
    19    21    22   ar
    20    22    23   ar
    21    23    24   ar
    22    24    27    1
    23    27    28   ar
    24    28    29   ar
    25    29    30   ar
    26    30    31   ar
    27    31    32   ar
    28    32    33   ar
    29    33    34    1
    30    33    35   ar
    31    35    36   ar
    32    36    37   ar
    33    24    25   ar
    34    25    26    1
    35    15    16    1
    36    16    17    1
    37    12     4   ar
    38    25    21   ar
    39    11     6   ar
    40    37    27   ar
    41    17     8    1
    42    37    31   ar
@<TRIPOS>MOLECULE
*****
 37 42 0 0 0
SMALL
GASTEIGER

@<TRIPOS>ATOM
      1 C         140.2882  144.9720  158.2024 C.3     1  UNL1        0.0666
      2 C         141.0538  145.2693  159.4576 C.3     1  UNL1        0.0294
      3 C         140.3216  145.6454  160.7116 C.3     1  UNL1        0.0730
      4 C         141.3835  140.3061  168.7307 C.ar    1  UNL1        0.2057
      5 N         140.4004  141.4227  168.5386 N.ar    1  UNL1       -0.2121
      6 C         140.5827  141.9675  167.1530 C.ar    1  UNL1        0.1182
      7 C         139.8925  143.0731  166.4104 C.ar    1  UNL1        0.0178
      8 C         140.2981  143.3988  165.0034 C.ar    1  UNL1       -0.0230
      9 C         141.3938  142.6191  164.3392 C.ar    1  UNL1       -0.0216
     10 C         142.0840  141.5136  165.0818 C.ar    1  UNL1        0.0346
     11 C         141.6785  141.1878  166.4887 C.ar    1  UNL1        0.1640
     12 O         142.1734  140.1610  167.4638 O.2     1  UNL1       -0.4384
     13 C         141.9486  142.7789  162.9547 C.3     1  UNL1        0.0434
     14 C         141.5444  143.7581  161.8926 C.3     1  UNL1        0.0768
     15 N         140.4859  144.8190  161.9527 N.3     1  UNL1       -0.2720
     16 C         139.5699  145.1631  163.0896 C.3     1  UNL1        0.0768
     17 C         139.4863  144.5310  164.4473 C.3     1  UNL1        0.0434
     18 C         142.7284  138.5652  170.1129 C.3     1  UNL1        0.0102
     19 C         141.5479  139.4798  169.9717 C.3     1  UNL1        0.0853
     20 S         139.9944  143.5512  157.8219 S.3     1  UNL1       -0.0756
     21 C         139.6283  142.5519  158.8790 C.ar    1  UNL1        0.1932
     22 N         138.2605  142.3419  159.4577 N.ar    1  UNL1       -0.1221
     23 N         138.3525  141.2475  160.4794 N.ar    1  UNL1       -0.1282
     24 C         139.7772  140.7812  160.5322 C.ar    1  UNL1        0.1669
     25 N         140.5657  141.5874  159.5430 N.ar    1  UNL1       -0.2884
     26 C         142.0339  141.4527  159.2666 C.3     1  UNL1        0.1340
     27 C         140.3184  139.6988  161.4184 C.ar    1  UNL1        0.0374
     28 C         141.3974  138.7865  160.9147 C.ar    1  UNL1        0.0031
     29 C         141.9386  137.7041  161.8010 C.ar    1  UNL1        0.0016
     30 C         141.4008  137.5338  163.1908 C.ar    1  UNL1        0.0191
     31 C         140.3219  138.4460  163.6945 C.ar    1  UNL1        0.0810
     32 N         139.7841  138.2758  165.0843 N.ar    1  UNL1       -0.2497
     33 C         138.7051  139.1880  165.5881 C.ar    1  UNL1        0.0593
     34 C         138.1673  139.0177  166.9780 C.3     1  UNL1        0.0521
     35 C         138.1639  140.2704  164.7018 C.ar    1  UNL1        0.0147
     36 C         138.7017  140.4407  163.3119 C.ar    1  UNL1        0.0028
     37 C         139.7807  139.5285  162.8083 C.ar    1  UNL1        0.0206
@<TRIPOS>BOND
     1    18    19    1
     2    19     4    1
     3     4     5   ar
     4     5     6   ar
     5     6     7   ar
     6     7     8   ar
     7     8     9   ar
     8     9    10   ar
     9    10    11   ar
    10    11    12   ar
    11     9    13    1
    12    13    14    1
    13    14    15    1
    14    15     3    1
    15     3     2    1
    16     2     1    1
    17     1    20    1
    18    20    21    1
    19    21    22   ar
    20    22    23   ar
    21    23    24   ar
    22    24    27    1
    23    27    28   ar
    24    28    29   ar
    25    29    30   ar
    26    30    31   ar
    27    31    32   ar
    28    32    33   ar
    29    33    34    1
    30    33    35   ar
    31    35    36   ar
    32    36    37   ar
    33    24    25   ar
    34    25    26    1
    35    15    16    1
    36    16    17    1
    37    12     4   ar
    38    25    21   ar
    39    11     6   ar
    40    37    27   ar
    41    17     8    1
    42    37    31   ar
@<TRIPOS>MOLECULE
*****
 37 42 0 0 0
SMALL
GASTEIGER

@<TRIPOS>ATOM
      1 C         141.7021  138.3729  158.3936 C.3     1  UNL1        0.0666
      2 C         140.4252  138.8659  159.0073 C.3     1  UNL1        0.0294
      3 C         139.7105  138.0285  160.0262 C.3     1  UNL1        0.0730
      4 C         140.4211  140.2010  169.4451 C.ar    1  UNL1        0.2057
      5 N         141.5524  139.8021  168.5445 N.ar    1  UNL1       -0.2121
      6 C         140.9910  139.5592  167.1749 C.ar    1  UNL1        0.1182
      7 C         141.6349  139.1437  165.8854 C.ar    1  UNL1        0.0178
      8 C         140.8004  138.9769  164.6501 C.ar    1  UNL1       -0.0230
      9 C         139.3223  139.2257  164.7043 C.ar    1  UNL1       -0.0216
     10 C         138.6784  139.6413  165.9937 C.ar    1  UNL1        0.0346
     11 C         139.5127  139.8081  167.2290 C.ar    1  UNL1        0.1640
     12 O         139.1606  140.2047  168.6321 O.2     1  UNL1       -0.4384
     13 C         138.3146  139.1180  163.5983 C.3     1  UNL1        0.0434
     14 C         138.5364  138.7348  162.1651 C.3     1  UNL1        0.0768
     15 N         139.8204  138.3648  161.4839 N.3     1  UNL1       -0.2720
     16 C         141.2000  138.2865  162.0676 C.3     1  UNL1        0.0768
     17 C         141.6362  138.5589  163.4767 C.3     1  UNL1        0.0434
     18 C         141.3721  141.6987  171.3433 C.3     1  UNL1        0.0102
     19 C         140.5311  140.5373  170.9028 C.3     1  UNL1        0.0853
     20 S         142.9441  139.2102  158.4721 S.3     1  UNL1       -0.0756
     21 C         143.2880  139.9242  159.7456 C.ar    1  UNL1        0.1932
     22 N         144.1741  139.4022  160.8375 N.ar    1  UNL1       -0.1221
     23 N         144.2400  140.4410  161.9175 N.ar    1  UNL1       -0.1282
     24 C         143.3946  141.6051  161.4931 C.ar    1  UNL1        0.1669
     25 N         142.8062  141.2857  160.1507 N.ar    1  UNL1       -0.2884
     26 C         141.8959  142.1723  159.3536 C.3     1  UNL1        0.1340
     27 C         143.1759  142.8670  162.2739 C.ar    1  UNL1        0.0374
     28 C         144.3017  143.8416  162.4549 C.ar    1  UNL1        0.0031
     29 C         144.0830  145.1036  163.2357 C.ar    1  UNL1        0.0016
     30 C         142.7386  145.3910  163.8356 C.ar    1  UNL1        0.0191
     31 C         141.6128  144.4164  163.6546 C.ar    1  UNL1        0.0810
     32 N         140.2684  144.7037  164.2544 N.ar    1  UNL1       -0.2497
     33 C         139.1425  143.7292  164.0734 C.ar    1  UNL1        0.0593
     34 C         137.7980  144.0165  164.6732 C.3     1  UNL1        0.0521
     35 C         139.3612  142.4672  163.2925 C.ar    1  UNL1        0.0147
     36 C         140.7057  142.1799  162.6927 C.ar    1  UNL1        0.0028
     37 C         141.8315  143.1545  162.8737 C.ar    1  UNL1        0.0206
@<TRIPOS>BOND
     1    18    19    1
     2    19     4    1
     3     4     5   ar
     4     5     6   ar
     5     6     7   ar
     6     7     8   ar
     7     8     9   ar
     8     9    10   ar
     9    10    11   ar
    10    11    12   ar
    11     9    13    1
    12    13    14    1
    13    14    15    1
    14    15     3    1
    15     3     2    1
    16     2     1    1
    17     1    20    1
    18    20    21    1
    19    21    22   ar
    20    22    23   ar
    21    23    24   ar
    22    24    27    1
    23    27    28   ar
    24    28    29   ar
    25    29    30   ar
    26    30    31   ar
    27    31    32   ar
    28    32    33   ar
    29    33    34    1
    30    33    35   ar
    31    35    36   ar
    32    36    37   ar
    33    24    25   ar
    34    25    26    1
    35    15    16    1
    36    16    17    1
    37    12     4   ar
    38    25    21   ar
    39    11     6   ar
    40    37    27   ar
    41    17     8    1
    42    37    31   ar
@<TRIPOS>MOLECULE
*****
 37 42 0 0 0
SMALL
GASTEIGER

@<TRIPOS>ATOM
      1 C         138.9197  139.9124  157.3374 C.3     1  UNL1        0.0666
      2 C         140.1534  139.6073  158.1342 C.3     1  UNL1        0.0294
      3 C         140.1610  138.4533  159.0926 C.3     1  UNL1        0.0730
      4 C         139.5644  140.0707  168.6303 C.ar    1  UNL1        0.2057
      5 N         140.5827  140.6579  167.6984 N.ar    1  UNL1       -0.2121
      6 C         140.3022  140.1393  166.3192 C.ar    1  UNL1        0.1182
      7 C         140.9780  140.3764  165.0011 C.ar    1  UNL1        0.0178
      8 C         140.4621  139.7058  163.7625 C.ar    1  UNL1       -0.0230
      9 C         139.2706  138.7982  163.8419 C.ar    1  UNL1       -0.0216
     10 C         138.5948  138.5611  165.1599 C.ar    1  UNL1        0.0346
     11 C         139.1106  139.2317  166.3986 C.ar    1  UNL1        0.1640
     12 O         138.6546  139.1893  167.8269 O.2     1  UNL1       -0.4384
     13 C         138.5998  138.0365  162.7373 C.3     1  UNL1        0.0434
     14 C         138.9550  137.9945  161.2805 C.3     1  UNL1        0.0768
     15 N         140.0686  138.7036  160.5687 N.3     1  UNL1       -0.2720
     16 C         141.1022  139.6300  161.1376 C.3     1  UNL1        0.0768
     17 C         141.2773  140.0760  162.5590 C.3     1  UNL1        0.0434
     18 C         140.4869  141.1932  170.7842 C.3     1  UNL1        0.0102
     19 C         139.4720  140.3210  170.1064 C.3     1  UNL1        0.0853
     20 S         138.1199  141.1457  157.6362 S.3     1  UNL1       -0.0756
     21 C         138.6269  142.1451  158.6332 C.ar    1  UNL1        0.1932
     22 N         139.4094  143.3855  158.3184 N.ar    1  UNL1       -0.1221
     23 N         139.7065  144.0867  159.6107 N.ar    1  UNL1       -0.1282
     24 C         139.1076  143.2796  160.7242 C.ar    1  UNL1        0.1669
     25 N         138.4403  142.0796  160.1201 N.ar    1  UNL1       -0.2884
     26 C         137.7141  141.0032  160.8711 C.3     1  UNL1        0.1340
     27 C         139.1658  143.6138  162.1854 C.ar    1  UNL1        0.0374
     28 C         137.9078  143.9562  162.9271 C.ar    1  UNL1        0.0031
     29 C         137.9659  144.2904  164.3882 C.ar    1  UNL1        0.0016
     30 C         139.2820  144.2822  165.1077 C.ar    1  UNL1        0.0191
     31 C         140.5400  143.9397  164.3660 C.ar    1  UNL1        0.0810
     32 N         141.8562  143.9315  165.0854 N.ar    1  UNL1       -0.2497
     33 C         143.1143  143.5890  164.3438 C.ar    1  UNL1        0.0593
     34 C         144.4305  143.5808  165.0632 C.3     1  UNL1        0.0521
     35 C         143.0561  143.2549  162.8826 C.ar    1  UNL1        0.0147
     36 C         141.7399  143.2631  162.1631 C.ar    1  UNL1        0.0028
     37 C         140.4819  143.6055  162.9049 C.ar    1  UNL1        0.0206
@<TRIPOS>BOND
     1    18    19    1
     2    19     4    1
     3     4     5   ar
     4     5     6   ar
     5     6     7   ar
     6     7     8   ar
     7     8     9   ar
     8     9    10   ar
     9    10    11   ar
    10    11    12   ar
    11     9    13    1
    12    13    14    1
    13    14    15    1
    14    15     3    1
    15     3     2    1
    16     2     1    1
    17     1    20    1
    18    20    21    1
    19    21    22   ar
    20    22    23   ar
    21    23    24   ar
    22    24    27    1
    23    27    28   ar
    24    28    29   ar
    25    29    30   ar
    26    30    31   ar
    27    31    32   ar
    28    32    33   ar
    29    33    34    1
    30    33    35   ar
    31    35    36   ar
    32    36    37   ar
    33    24    25   ar
    34    25    26    1
    35    15    16    1
    36    16    17    1
    37    12     4   ar
    38    25    21   ar
    39    11     6   ar
    40    37    27   ar
    41    17     8    1
    42    37    31   ar
@<TRIPOS>MOLECULE
*****
 37 42 0 0 0
SMALL
GASTEIGER

@<TRIPOS>ATOM
      1 C         140.5248  139.9055  169.2061 C.3     1  UNL1        0.0666
      2 C         139.6158  140.2727  168.0708 C.3     1  UNL1        0.0294
      3 C         139.0200  139.1989  167.2094 C.3     1  UNL1        0.0730
      4 C         139.9107  139.6667  157.5695 C.ar    1  UNL1        0.2057
      5 N         140.2896  140.7430  158.5433 N.ar    1  UNL1       -0.2121
      6 C         139.9828  140.2467  159.9251 C.ar    1  UNL1        0.1182
      7 C         140.1477  140.8755  161.2770 C.ar    1  UNL1        0.0178
      8 C         139.7440  140.1213  162.5092 C.ar    1  UNL1       -0.0230
      9 C         139.1755  138.7385  162.3895 C.ar    1  UNL1       -0.0216
     10 C         139.0106  138.1097  161.0377 C.ar    1  UNL1        0.0346
     11 C         139.4142  138.8638  159.8055 C.ar    1  UNL1        0.1640
     12 O         139.3697  138.5054  158.3496 O.2     1  UNL1       -0.4384
     13 C         138.7132  137.8196  163.4813 C.3     1  UNL1        0.0434
     14 C         138.7054  138.0568  164.9625 C.3     1  UNL1        0.0768
     15 N         139.1578  139.2712  165.7175 N.3     1  UNL1       -0.2720
     16 C         139.7299  140.5487  165.1781 C.3     1  UNL1        0.0768
     17 C         139.9908  140.9270  163.7502 C.3     1  UNL1        0.0434
     18 C         140.3101  138.4914  155.2871 C.3     1  UNL1        0.0102
     19 C         140.0485  139.7391  156.0776 C.3     1  UNL1        0.0853
     20 S         142.0059  140.1032  169.0751 S.3     1  UNL1       -0.0756
     21 C         142.6893  139.8109  167.7722 C.ar    1  UNL1        0.1932
     22 N         143.3008  138.5010  167.3719 N.ar    1  UNL1       -0.1221
     23 N         143.8706  138.6576  165.9932 N.ar    1  UNL1       -0.1282
     24 C         143.6112  140.0643  165.5414 C.ar    1  UNL1        0.1669
     25 N         142.8811  140.7771  166.6410 N.ar    1  UNL1       -0.2884
     26 C         142.4232  142.2052  166.6139 C.3     1  UNL1        0.1340
     27 C         144.0116  140.6545  164.2219 C.ar    1  UNL1        0.0374
     28 C         144.7214  141.9751  164.1754 C.ar    1  UNL1        0.0031
     29 C         145.1218  142.5654  162.8559 C.ar    1  UNL1        0.0016
     30 C         144.8124  141.8352  161.5827 C.ar    1  UNL1        0.0191
     31 C         144.1026  140.5145  161.6292 C.ar    1  UNL1        0.0810
     32 N         143.7932  139.7842  160.3561 N.ar    1  UNL1       -0.2497
     33 C         143.0834  138.4635  160.4024 C.ar    1  UNL1        0.0593
     34 C         142.7739  137.7332  159.1293 C.3     1  UNL1        0.0521
     35 C         142.6830  137.8733  161.7221 C.ar    1  UNL1        0.0147
     36 C         142.9924  138.6037  162.9952 C.ar    1  UNL1        0.0028
     37 C         143.7022  139.9243  162.9487 C.ar    1  UNL1        0.0206
@<TRIPOS>BOND
     1    18    19    1
     2    19     4    1
     3     4     5   ar
     4     5     6   ar
     5     6     7   ar
     6     7     8   ar
     7     8     9   ar
     8     9    10   ar
     9    10    11   ar
    10    11    12   ar
    11     9    13    1
    12    13    14    1
    13    14    15    1
    14    15     3    1
    15     3     2    1
    16     2     1    1
    17     1    20    1
    18    20    21    1
    19    21    22   ar
    20    22    23   ar
    21    23    24   ar
    22    24    27    1
    23    27    28   ar
    24    28    29   ar
    25    29    30   ar
    26    30    31   ar
    27    31    32   ar
    28    32    33   ar
    29    33    34    1
    30    33    35   ar
    31    35    36   ar
    32    36    37   ar
    33    24    25   ar
    34    25    26    1
    35    15    16    1
    36    16    17    1
    37    12     4   ar
    38    25    21   ar
    39    11     6   ar
    40    37    27   ar
    41    17     8    1
    42    37    31   ar
@<TRIPOS>MOLECULE
*****
 37 42 0 0 0
SMALL
GASTEIGER

@<TRIPOS>ATOM
      1 C         141.3626  138.8728  157.6632 C.3     1  UNL1        0.0666
      2 C         140.2510  139.5794  158.3809 C.3     1  UNL1        0.0294
      3 C         139.3646  138.8202  159.3232 C.3     1  UNL1        0.0730
      4 C         139.5277  140.8231  168.8050 C.ar    1  UNL1        0.2057
      5 N         139.1084  139.5228  168.1855 N.ar    1  UNL1       -0.2121
      6 C         139.2389  139.6551  166.6971 C.ar    1  UNL1        0.1182
      7 C         138.9671  138.6957  165.5765 C.ar    1  UNL1        0.0178
      8 C         139.1952  139.1183  164.1554 C.ar    1  UNL1       -0.0230
      9 C         139.6951  140.5001  163.8550 C.ar    1  UNL1       -0.0216
     10 C         139.9669  141.4596  164.9755 C.ar    1  UNL1        0.0346
     11 C         139.7388  141.0371  166.3966 C.ar    1  UNL1        0.1640
     12 O         139.9173  141.7589  167.6993 O.2     1  UNL1       -0.4384
     13 C         139.9871  141.1195  162.5203 C.3     1  UNL1        0.0434
     14 C         139.8512  140.5097  161.1565 C.3     1  UNL1        0.0768
     15 N         139.3899  139.1302  160.7907 N.3     1  UNL1       -0.2720
     16 C         138.9504  138.0196  161.6981 C.3     1  UNL1        0.0768
     17 C         138.8638  138.0143  163.1955 C.3     1  UNL1        0.0434
     18 C         140.7550  140.7731  171.0944 C.3     1  UNL1        0.0102
     19 C         139.5529  141.1330  170.2724 C.3     1  UNL1        0.0853
     20 S         142.7905  139.1852  157.9998 S.3     1  UNL1       -0.0756
     21 C         143.2163  139.2950  159.4339 C.ar    1  UNL1        0.1932
     22 N         143.7735  138.1854  160.2756 N.ar    1  UNL1       -0.1221
     23 N         144.0613  138.7382  161.6400 N.ar    1  UNL1       -0.1282
     24 C         143.6819  140.1894  161.6416 C.ar    1  UNL1        0.1669
     25 N         143.1596  140.5335  160.2781 N.ar    1  UNL1       -0.2884
     26 C         142.6673  141.8798  159.8365 C.3     1  UNL1        0.1340
     27 C         143.8033  141.1312  162.8027 C.ar    1  UNL1        0.0374
     28 C         144.2113  142.5563  162.5731 C.ar    1  UNL1        0.0031
     29 C         144.3328  143.4981  163.7342 C.ar    1  UNL1        0.0016
     30 C         144.0463  143.0149  165.1250 C.ar    1  UNL1        0.0191
     31 C         143.6382  141.5898  165.3546 C.ar    1  UNL1        0.0810
     32 N         143.3517  141.1066  166.7454 N.ar    1  UNL1       -0.2497
     33 C         142.9436  139.6815  166.9752 C.ar    1  UNL1        0.0593
     34 C         142.6571  139.1982  168.3660 C.3     1  UNL1        0.0521
     35 C         142.8222  138.7397  165.8139 C.ar    1  UNL1        0.0147
     36 C         143.1087  139.2230  164.4232 C.ar    1  UNL1        0.0028
     37 C         143.5168  140.6480  164.1935 C.ar    1  UNL1        0.0206
@<TRIPOS>BOND
     1    18    19    1
     2    19     4    1
     3     4     5   ar
     4     5     6   ar
     5     6     7   ar
     6     7     8   ar
     7     8     9   ar
     8     9    10   ar
     9    10    11   ar
    10    11    12   ar
    11     9    13    1
    12    13    14    1
    13    14    15    1
    14    15     3    1
    15     3     2    1
    16     2     1    1
    17     1    20    1
    18    20    21    1
    19    21    22   ar
    20    22    23   ar
    21    23    24   ar
    22    24    27    1
    23    27    28   ar
    24    28    29   ar
    25    29    30   ar
    26    30    31   ar
    27    31    32   ar
    28    32    33   ar
    29    33    34    1
    30    33    35   ar
    31    35    36   ar
    32    36    37   ar
    33    24    25   ar
    34    25    26    1
    35    15    16    1
    36    16    17    1
    37    12     4   ar
    38    25    21   ar
    39    11     6   ar
    40    37    27   ar
    41    17     8    1
    42    37    31   ar
@<TRIPOS>MOLECULE
*****
 37 42 0 0 0
SMALL
GASTEIGER

@<TRIPOS>ATOM
      1 C         142.7640  139.0512  158.0712 C.3     1  UNL1        0.0666
      2 C         143.7521  140.1355  158.3839 C.3     1  UNL1        0.0294
      3 C         143.2720  141.4685  158.8767 C.3     1  UNL1        0.0730
      4 C         141.7097  142.8614  168.3403 C.ar    1  UNL1        0.2057
      5 N         143.0142  142.4730  167.7097 N.ar    1  UNL1       -0.2121
      6 C         142.8001  142.3680  166.2289 C.ar    1  UNL1        0.1182
      7 C         143.7280  142.0196  165.1029 C.ar    1  UNL1        0.0178
      8 C         143.2189  141.9946  163.6920 C.ar    1  UNL1       -0.0230
      9 C         141.7822  142.3180  163.4073 C.ar    1  UNL1       -0.0216
     10 C         140.8544  142.6664  164.5332 C.ar    1  UNL1        0.0346
     11 C         141.3633  142.6914  165.9441 C.ar    1  UNL1        0.1640
     12 O         140.6895  142.9963  167.2490 O.2     1  UNL1       -0.4384
     13 C         141.0754  142.3511  162.0846 C.3     1  UNL1        0.0434
     14 C         141.6309  142.0689  160.7201 C.3     1  UNL1        0.0768
     15 N         143.0302  141.6841  160.3413 N.3     1  UNL1       -0.2720
     16 C         144.2198  141.4862  161.2333 C.3     1  UNL1        0.0768
     17 C         144.3038  141.6244  162.7246 C.3     1  UNL1        0.0434
     18 C         140.1745  143.6767  170.2712 C.3     1  UNL1        0.0102
     19 C         141.4679  143.0769  169.8049 C.3     1  UNL1        0.0853
     20 S         142.6356  137.8676  158.9835 S.3     1  UNL1       -0.0756
     21 C         142.5174  138.0718  160.4649 C.ar    1  UNL1        0.1932
     22 N         143.6130  137.8812  161.4714 N.ar    1  UNL1       -0.1221
     23 N         143.0555  138.1941  162.8284 N.ar    1  UNL1       -0.1282
     24 C         141.6152  138.5781  162.6604 C.ar    1  UNL1        0.1669
     25 N         141.2826  138.5025  161.1997 N.ar    1  UNL1       -0.2884
     26 C         139.9494  138.8046  160.5822 C.3     1  UNL1        0.1340
     27 C         140.6730  138.9690  163.7601 C.ar    1  UNL1        0.0374
     28 C         139.2420  139.2885  163.4434 C.ar    1  UNL1        0.0031
     29 C         138.2998  139.6794  164.5431 C.ar    1  UNL1        0.0016
     30 C         138.7884  139.7509  165.9595 C.ar    1  UNL1        0.0191
     31 C         140.2194  139.4313  166.2761 C.ar    1  UNL1        0.0810
     32 N         140.7081  139.5027  167.6925 N.ar    1  UNL1       -0.2497
     33 C         142.1391  139.1832  168.0092 C.ar    1  UNL1        0.0593
     34 C         142.6278  139.2546  169.4255 C.3     1  UNL1        0.0521
     35 C         143.0813  138.7923  166.9094 C.ar    1  UNL1        0.0147
     36 C         142.5926  138.7209  165.4931 C.ar    1  UNL1        0.0028
     37 C         141.1616  139.0404  165.1764 C.ar    1  UNL1        0.0206
@<TRIPOS>BOND
     1    18    19    1
     2    19     4    1
     3     4     5   ar
     4     5     6   ar
     5     6     7   ar
     6     7     8   ar
     7     8     9   ar
     8     9    10   ar
     9    10    11   ar
    10    11    12   ar
    11     9    13    1
    12    13    14    1
    13    14    15    1
    14    15     3    1
    15     3     2    1
    16     2     1    1
    17     1    20    1
    18    20    21    1
    19    21    22   ar
    20    22    23   ar
    21    23    24   ar
    22    24    27    1
    23    27    28   ar
    24    28    29   ar
    25    29    30   ar
    26    30    31   ar
    27    31    32   ar
    28    32    33   ar
    29    33    34    1
    30    33    35   ar
    31    35    36   ar
    32    36    37   ar
    33    24    25   ar
    34    25    26    1
    35    15    16    1
    36    16    17    1
    37    12     4   ar
    38    25    21   ar
    39    11     6   ar
    40    37    27   ar
    41    17     8    1
    42    37    31   ar
@<TRIPOS>MOLECULE
*****
 37 42 0 0 0
SMALL
GASTEIGER

@<TRIPOS>ATOM
      1 C         141.5830  141.1738  171.1021 C.3     1  UNL1        0.0666
      2 C         142.7790  140.6280  170.3798 C.3     1  UNL1        0.0294
      3 C         143.3877  141.3999  169.2468 C.3     1  UNL1        0.0730
      4 C         141.7417  138.6774  160.0914 C.ar    1  UNL1        0.2057
      5 N         141.7138  137.7835  161.2957 N.ar    1  UNL1       -0.2121
      6 C         142.0239  138.6203  162.5013 C.ar    1  UNL1        0.1182
      7 C         142.1348  138.2796  163.9580 C.ar    1  UNL1        0.0178
      8 C         142.4652  139.3501  164.9555 C.ar    1  UNL1       -0.0230
      9 C         142.6847  140.7610  164.4964 C.ar    1  UNL1       -0.0216
     10 C         142.5738  141.1018  163.0399 C.ar    1  UNL1        0.0346
     11 C         142.2435  140.0314  162.0423 C.ar    1  UNL1        0.1640
     12 O         142.0690  140.0667  160.5529 O.2     1  UNL1       -0.4384
     13 C         143.0207  141.9703  165.3180 C.3     1  UNL1        0.0434
     14 C         143.2202  142.0670  166.8016 C.3     1  UNL1        0.0768
     15 N         143.1330  140.9785  167.8298 N.3     1  UNL1       -0.2720
     16 C         142.8247  139.5244  167.6287 C.3     1  UNL1        0.0768
     17 C         142.5275  138.7996  166.3495 C.3     1  UNL1        0.0434
     18 C         142.5672  137.5728  157.8895 C.3     1  UNL1        0.0102
     19 C         141.4869  138.2561  158.6745 C.3     1  UNL1        0.0853
     20 S         140.2013  140.7941  170.6588 S.3     1  UNL1       -0.0756
     21 C         139.8710  140.7408  169.1965 C.ar    1  UNL1        0.1932
     22 N         139.4047  139.5315  168.4415 N.ar    1  UNL1       -0.1221
     23 N         139.1944  139.9307  167.0110 N.ar    1  UNL1       -0.1282
     24 C         139.5307  141.3869  166.8819 C.ar    1  UNL1        0.1669
     25 N         139.9489  141.8875  168.2327 N.ar    1  UNL1       -0.2884
     26 C         140.3708  143.2889  168.5618 C.3     1  UNL1        0.1340
     27 C         139.4612  142.1996  165.6232 C.ar    1  UNL1        0.0374
     28 C         139.7292  143.6748  165.6671 C.ar    1  UNL1        0.0031
     29 C         139.6596  144.4876  164.4083 C.ar    1  UNL1        0.0016
     30 C         139.3220  143.8253  163.1056 C.ar    1  UNL1        0.0191
     31 C         139.0539  142.3501  163.0616 C.ar    1  UNL1        0.0810
     32 N         138.7163  141.6877  161.7589 N.ar    1  UNL1       -0.2497
     33 C         138.4482  140.2124  161.7148 C.ar    1  UNL1        0.0593
     34 C         138.1105  139.5500  160.4121 C.3     1  UNL1        0.0521
     35 C         138.5178  139.3997  162.9737 C.ar    1  UNL1        0.0147
     36 C         138.8554  140.0621  164.2764 C.ar    1  UNL1        0.0028
     37 C         139.1235  141.5373  164.3204 C.ar    1  UNL1        0.0206
@<TRIPOS>BOND
     1    18    19    1
     2    19     4    1
     3     4     5   ar
     4     5     6   ar
     5     6     7   ar
     6     7     8   ar
     7     8     9   ar
     8     9    10   ar
     9    10    11   ar
    10    11    12   ar
    11     9    13    1
    12    13    14    1
    13    14    15    1
    14    15     3    1
    15     3     2    1
    16     2     1    1
    17     1    20    1
    18    20    21    1
    19    21    22   ar
    20    22    23   ar
    21    23    24   ar
    22    24    27    1
    23    27    28   ar
    24    28    29   ar
    25    29    30   ar
    26    30    31   ar
    27    31    32   ar
    28    32    33   ar
    29    33    34    1
    30    33    35   ar
    31    35    36   ar
    32    36    37   ar
    33    24    25   ar
    34    25    26    1
    35    15    16    1
    36    16    17    1
    37    12     4   ar
    38    25    21   ar
    39    11     6   ar
    40    37    27   ar
    41    17     8    1
    42    37    31   ar
