@<TRIPOS>MOLECULE
*****
 28 32 0 0 0
SMALL
GASTEIGER

@<TRIPOS>ATOM
      1 N         139.4637  142.7944  161.5245 N.pl3   1  UNL1       -0.2917
      2 C         138.1780  142.9069  162.2890 C.3     1  UNL1        0.0939
      3 C         137.9989  142.1486  163.5708 C.3     1  UNL1        0.0412
      4 C         139.1054  141.2778  164.0881 C.3     1  UNL1        0.0762
      5 C         140.3910  141.1654  163.3235 C.3     1  UNL1        0.0412
      6 C         140.5701  141.9237  162.0417 C.3     1  UNL1        0.0939
      7 N         138.9263  140.5196  165.3698 N.pl3   1  UNL1       -0.3088
      8 C         138.1182  139.2686  165.5486 C.3     1  UNL1        0.0954
      9 C         138.2162  138.8551  166.9871 C.3     1  UNL1        0.0490
     10 C         139.0849  139.8505  167.6974 C.ar    1  UNL1       -0.0070
     11 C         139.5331  139.9530  169.1252 C.ar    1  UNL1       -0.0007
     12 C         140.4200  141.0844  169.5534 C.ar    1  UNL1        0.0294
     13 C         140.8588  142.1131  168.5539 C.ar    1  UNL1        0.1414
     14 F         141.7458  143.2445  168.9822 F       1  UNL1       -0.2041
     15 C         140.4107  142.0105  167.1261 C.ar    1  UNL1        0.0438
     16 C         139.5238  140.8792  166.6979 C.ar    1  UNL1        0.0461
     17 C         140.0011  145.0691  157.6792 C.ar    1  UNL1        0.1705
     18 C         139.8038  143.5824  157.6498 C.ar    1  UNL1        0.0421
     19 C         139.6247  142.8242  158.9316 C.ar    1  UNL1        0.0393
     20 C         139.6428  143.5527  160.2427 C.ar    1  UNL1        0.1536
     21 N         139.8401  145.0393  160.2721 N.ar    1  UNL1       -0.1315
     22 N         140.0193  145.7975  158.9902 N.ar    1  UNL1       -0.1286
     23 C         139.6127  148.7810  153.9440 C.3     1  UNL1        0.0538
     24 C         140.0017  147.5335  154.6806 C.ar    1  UNL1        0.0786
     25 C         139.5507  147.1457  156.0575 C.ar    1  UNL1        0.0976
     26 N         140.1803  145.8273  156.3974 N.ar    1  UNL1       -0.2702
     27 C         141.0205  145.4004  155.2305 C.ar    1  UNL1        0.1837
     28 N         140.9102  146.4549  154.1693 N.ar    1  UNL1       -0.2280
@<TRIPOS>BOND
     1    23    24    1
     2    24    25   ar
     3    25    26   ar
     4    26    17    1
     5    17    18   ar
     6    18    19   ar
     7    19    20   ar
     8    20     1    1
     9     1     2    1
    10     2     3    1
    11     3     4    1
    12     4     7    1
    13     7     8    1
    14     8     9    1
    15     9    10    1
    16    10    11   ar
    17    11    12   ar
    18    12    13   ar
    19    13    14    1
    20    13    15   ar
    21    15    16   ar
    22     4     5    1
    23     5     6    1
    24    20    21   ar
    25    21    22   ar
    26    26    27   ar
    27    27    28   ar
    28    28    24   ar
    29    22    17   ar
    30     6     1    1
    31    16     7    1
    32    16    10   ar
@<TRIPOS>MOLECULE
*****
 28 32 0 0 0
SMALL
GASTEIGER

@<TRIPOS>ATOM
      1 N         141.3323  142.8072  162.7559 N.pl3   1  UNL1       -0.2917
      2 C         140.5164  141.6140  163.1567 C.3     1  UNL1        0.0939
      3 C         140.7126  140.9905  164.5068 C.3     1  UNL1        0.0412
      4 C         141.7248  141.5602  165.4561 C.3     1  UNL1        0.0762
      5 C         142.5406  142.7533  165.0553 C.3     1  UNL1        0.0412
      6 C         142.3444  143.3769  163.7052 C.3     1  UNL1        0.0939
      7 N         141.9210  140.9366  166.8062 N.pl3   1  UNL1       -0.3088
      8 C         142.5295  139.5925  167.0766 C.3     1  UNL1        0.0954
      9 C         142.5277  139.3730  168.5604 C.3     1  UNL1        0.0490
     10 C         141.9181  140.5813  169.2071 C.ar    1  UNL1       -0.0070
     11 C         141.6560  140.9265  170.6431 C.ar    1  UNL1       -0.0007
     12 C         141.0189  142.2381  170.9949 C.ar    1  UNL1        0.0294
     13 C         140.6439  143.2045  169.9107 C.ar    1  UNL1        0.1414
     14 F         140.0068  144.5161  170.2626 F       1  UNL1       -0.2041
     15 C         140.9060  142.8593  168.4747 C.ar    1  UNL1        0.0438
     16 C         141.5431  141.5478  168.1229 C.ar    1  UNL1        0.0461
     17 C         140.7436  144.6778  158.7057 C.ar    1  UNL1        0.1705
     18 C         139.7935  143.6228  159.1899 C.ar    1  UNL1        0.0421
     19 C         139.9898  142.9993  160.5400 C.ar    1  UNL1        0.0393
     20 C         141.1361  143.4308  161.4059 C.ar    1  UNL1        0.1536
     21 N         142.0862  144.4858  160.9217 N.ar    1  UNL1       -0.1315
     22 N         141.8899  145.1093  159.5716 N.ar    1  UNL1       -0.1286
     23 C         139.3118  148.0228  154.8793 C.3     1  UNL1        0.0538
     24 C         139.8892  146.8389  155.5969 C.ar    1  UNL1        0.0786
     25 C         139.8557  146.6030  157.0779 C.ar    1  UNL1        0.0976
     26 N         140.5474  145.3013  157.3557 N.ar    1  UNL1       -0.2702
     27 C         141.0084  144.7327  156.0464 C.ar    1  UNL1        0.1837
     28 N         140.6016  145.6829  154.9594 N.ar    1  UNL1       -0.2280
@<TRIPOS>BOND
     1    23    24    1
     2    24    25   ar
     3    25    26   ar
     4    26    17    1
     5    17    18   ar
     6    18    19   ar
     7    19    20   ar
     8    20     1    1
     9     1     2    1
    10     2     3    1
    11     3     4    1
    12     4     7    1
    13     7     8    1
    14     8     9    1
    15     9    10    1
    16    10    11   ar
    17    11    12   ar
    18    12    13   ar
    19    13    14    1
    20    13    15   ar
    21    15    16   ar
    22     4     5    1
    23     5     6    1
    24    20    21   ar
    25    21    22   ar
    26    26    27   ar
    27    27    28   ar
    28    28    24   ar
    29    22    17   ar
    30     6     1    1
    31    16     7    1
    32    16    10   ar
@<TRIPOS>MOLECULE
*****
 28 32 0 0 0
SMALL
GASTEIGER

@<TRIPOS>ATOM
      1 N         142.5838  140.5552  160.8460 N.pl3   1  UNL1       -0.2917
      2 C         142.2496  139.1683  161.3097 C.3     1  UNL1        0.0939
      3 C         141.4036  138.9697  162.5323 C.3     1  UNL1        0.0412
      4 C         140.8917  140.1581  163.2913 C.3     1  UNL1        0.0762
      5 C         141.2259  141.5448  162.8277 C.3     1  UNL1        0.0412
      6 C         142.0719  141.7434  161.6050 C.3     1  UNL1        0.0939
      7 N         140.0457  139.9595  164.5140 N.pl3   1  UNL1       -0.3088
      8 C         138.6065  139.5371  164.5312 C.3     1  UNL1        0.0954
      9 C         138.1618  139.4650  165.9619 C.3     1  UNL1        0.0490
     10 C         139.3261  139.8427  166.8289 C.ar    1  UNL1       -0.0070
     11 C         139.4765  139.9478  168.3176 C.ar    1  UNL1       -0.0007
     12 C         140.7912  140.3586  168.9114 C.ar    1  UNL1        0.0294
     13 C         141.9556  140.6642  168.0165 C.ar    1  UNL1        0.1414
     14 F         143.2704  141.0749  168.6104 F       1  UNL1       -0.2041
     15 C         141.8052  140.5590  166.5278 C.ar    1  UNL1        0.0438
     16 C         140.4905  140.1483  165.9340 C.ar    1  UNL1        0.0461
     17 C         145.1218  141.1511  157.1782 C.ar    1  UNL1        0.1705
     18 C         144.8808  142.2955  158.1175 C.ar    1  UNL1        0.0421
     19 C         144.0347  142.0968  159.3401 C.ar    1  UNL1        0.0393
     20 C         143.4298  140.7538  159.6234 C.ar    1  UNL1        0.1536
     21 N         143.6709  139.6094  158.6841 N.ar    1  UNL1       -0.1315
     22 N         144.5169  139.8081  157.4615 N.ar    1  UNL1       -0.1286
     23 C         149.0017  142.7144  153.9558 C.3     1  UNL1        0.0538
     24 C         147.7512  142.0683  154.4745 C.ar    1  UNL1        0.0786
     25 C         147.2442  142.1346  155.8846 C.ar    1  UNL1        0.0976
     26 N         145.9678  141.3497  155.9556 N.ar    1  UNL1       -0.2702
     27 C         145.6861  140.7984  154.5894 C.ar    1  UNL1        0.1837
     28 N         146.7883  141.2425  153.6739 N.ar    1  UNL1       -0.2280
@<TRIPOS>BOND
     1    23    24    1
     2    24    25   ar
     3    25    26   ar
     4    26    17    1
     5    17    18   ar
     6    18    19   ar
     7    19    20   ar
     8    20     1    1
     9     1     2    1
    10     2     3    1
    11     3     4    1
    12     4     7    1
    13     7     8    1
    14     8     9    1
    15     9    10    1
    16    10    11   ar
    17    11    12   ar
    18    12    13   ar
    19    13    14    1
    20    13    15   ar
    21    15    16   ar
    22     4     5    1
    23     5     6    1
    24    20    21   ar
    25    21    22   ar
    26    26    27   ar
    27    27    28   ar
    28    28    24   ar
    29    22    17   ar
    30     6     1    1
    31    16     7    1
    32    16    10   ar
@<TRIPOS>MOLECULE
*****
 28 32 0 0 0
SMALL
GASTEIGER

@<TRIPOS>ATOM
      1 N         141.3861  139.1675  163.2862 N.pl3   1  UNL1       -0.2917
      2 C         140.3907  140.2525  163.5724 C.3     1  UNL1        0.0939
      3 C         140.0592  140.6112  164.9907 C.3     1  UNL1        0.0412
      4 C         140.7232  139.8847  166.1228 C.3     1  UNL1        0.0762
      5 C         141.7186  138.7998  165.8365 C.3     1  UNL1        0.0412
      6 C         142.0501  138.4412  164.4182 C.3     1  UNL1        0.0939
      7 N         140.3917  140.2434  167.5411 N.pl3   1  UNL1       -0.3088
      8 C         139.1135  139.9204  168.2565 C.3     1  UNL1        0.0954
      9 C         139.2121  140.4654  169.6505 C.3     1  UNL1        0.0490
     10 C         140.5513  141.1252  169.7966 C.ar    1  UNL1       -0.0070
     11 C         141.2010  141.8332  170.9484 C.ar    1  UNL1       -0.0007
     12 C         142.5798  142.4040  170.7964 C.ar    1  UNL1        0.0294
     13 C         143.3088  142.2668  169.4927 C.ar    1  UNL1        0.1414
     14 F         144.6877  142.8376  169.3407 F       1  UNL1       -0.2041
     15 C         142.6591  141.5588  168.3409 C.ar    1  UNL1        0.0438
     16 C         141.2803  140.9880  168.4929 C.ar    1  UNL1        0.0461
     17 C         142.3805  138.0917  159.0314 C.ar    1  UNL1        0.1705
     18 C         141.3282  139.1215  159.3183 C.ar    1  UNL1        0.0421
     19 C         140.9968  139.4801  160.7366 C.ar    1  UNL1        0.0393
     20 C         141.7176  138.8089  161.8679 C.ar    1  UNL1        0.1536
     21 N         142.7698  137.7791  161.5810 N.ar    1  UNL1       -0.1315
     22 N         143.1013  137.4205  160.1627 N.ar    1  UNL1       -0.1286
     23 C         143.1115  135.3335  154.5886 C.3     1  UNL1        0.0538
     24 C         143.0480  136.4652  155.5710 C.ar    1  UNL1        0.0786
     25 C         142.6251  136.3639  157.0066 C.ar    1  UNL1        0.0976
     26 N         142.7119  137.7331  157.6131 N.ar    1  UNL1       -0.2702
     27 C         143.1884  138.6806  156.5524 C.ar    1  UNL1        0.1837
     28 N         143.3961  137.8970  155.2902 N.ar    1  UNL1       -0.2280
@<TRIPOS>BOND
     1    23    24    1
     2    24    25   ar
     3    25    26   ar
     4    26    17    1
     5    17    18   ar
     6    18    19   ar
     7    19    20   ar
     8    20     1    1
     9     1     2    1
    10     2     3    1
    11     3     4    1
    12     4     7    1
    13     7     8    1
    14     8     9    1
    15     9    10    1
    16    10    11   ar
    17    11    12   ar
    18    12    13   ar
    19    13    14    1
    20    13    15   ar
    21    15    16   ar
    22     4     5    1
    23     5     6    1
    24    20    21   ar
    25    21    22   ar
    26    26    27   ar
    27    27    28   ar
    28    28    24   ar
    29    22    17   ar
    30     6     1    1
    31    16     7    1
    32    16    10   ar
@<TRIPOS>MOLECULE
*****
 28 32 0 0 0
SMALL
GASTEIGER

@<TRIPOS>ATOM
      1 N         139.8724  140.3915  161.7722 N.pl3   1  UNL1       -0.2917
      2 C         139.2462  139.4323  162.7406 C.3     1  UNL1        0.0939
      3 C         139.9734  139.0525  163.9964 C.3     1  UNL1        0.0412
      4 C         141.3269  139.6319  164.2838 C.3     1  UNL1        0.0762
      5 C         141.9530  140.5911  163.3154 C.3     1  UNL1        0.0412
      6 C         141.2258  140.9709  162.0596 C.3     1  UNL1        0.0939
      7 N         142.0541  139.2522  165.5396 N.pl3   1  UNL1       -0.3088
      8 C         143.3394  138.4826  165.6157 C.3     1  UNL1        0.0954
      9 C         143.7033  138.3301  167.0628 C.3     1  UNL1        0.0490
     10 C         142.6429  139.0054  167.8811 C.ar    1  UNL1       -0.0070
     11 C         142.4738  139.1751  169.3618 C.ar    1  UNL1       -0.0007
     12 C         141.2854  139.9146  169.9011 C.ar    1  UNL1        0.0294
     13 C         140.2662  140.4845  168.9596 C.ar    1  UNL1        0.1414
     14 F         139.0778  141.2240  169.4990 F       1  UNL1       -0.2041
     15 C         140.4353  140.3148  167.4789 C.ar    1  UNL1        0.0438
     16 C         141.6237  139.5753  166.9397 C.ar    1  UNL1        0.0461
     17 C         137.6909  141.5309  158.0050 C.ar    1  UNL1        0.1705
     18 C         138.6312  142.5049  158.6509 C.ar    1  UNL1        0.0421
     19 C         139.3584  142.1250  159.9067 C.ar    1  UNL1        0.0393
     20 C         139.1452  140.7712  160.5165 C.ar    1  UNL1        0.1536
     21 N         138.2049  139.7973  159.8706 N.ar    1  UNL1       -0.1315
     22 N         137.4777  140.1772  158.6148 N.ar    1  UNL1       -0.1286
     23 C         134.4760  141.3695  153.8194 C.3     1  UNL1        0.0538
     24 C         135.4860  141.8364  154.8253 C.ar    1  UNL1        0.0786
     25 C         135.9559  141.0682  156.0249 C.ar    1  UNL1        0.0976
     26 N         136.9637  141.9107  156.7492 N.ar    1  UNL1       -0.2702
     27 C         137.1167  143.1996  155.9973 C.ar    1  UNL1        0.1837
     28 N         136.2033  143.1537  154.8082 N.ar    1  UNL1       -0.2280
@<TRIPOS>BOND
     1    23    24    1
     2    24    25   ar
     3    25    26   ar
     4    26    17    1
     5    17    18   ar
     6    18    19   ar
     7    19    20   ar
     8    20     1    1
     9     1     2    1
    10     2     3    1
    11     3     4    1
    12     4     7    1
    13     7     8    1
    14     8     9    1
    15     9    10    1
    16    10    11   ar
    17    11    12   ar
    18    12    13   ar
    19    13    14    1
    20    13    15   ar
    21    15    16   ar
    22     4     5    1
    23     5     6    1
    24    20    21   ar
    25    21    22   ar
    26    26    27   ar
    27    27    28   ar
    28    28    24   ar
    29    22    17   ar
    30     6     1    1
    31    16     7    1
    32    16    10   ar
@<TRIPOS>MOLECULE
*****
 28 32 0 0 0
SMALL
GASTEIGER

@<TRIPOS>ATOM
      1 N         139.9754  141.8507  162.5637 N.pl3   1  UNL1       -0.2917
      2 C         139.9953  143.1279  163.3501 C.3     1  UNL1        0.0939
      3 C         140.6109  143.1571  164.7176 C.3     1  UNL1        0.0412
      4 C         141.2066  141.9091  165.2988 C.3     1  UNL1        0.0762
      5 C         141.1867  140.6320  164.5124 C.3     1  UNL1        0.0412
      6 C         140.5711  140.6028  163.1448 C.3     1  UNL1        0.0939
      7 N         141.8221  141.9383  166.6664 N.pl3   1  UNL1       -0.3088
      8 C         143.1958  142.4369  167.0045 C.3     1  UNL1        0.0954
      9 C         143.3947  142.2808  168.4830 C.3     1  UNL1        0.0490
     10 C         142.1439  141.6857  169.0587 C.ar    1  UNL1       -0.0070
     11 C         141.7644  141.3092  170.4602 C.ar    1  UNL1       -0.0007
     12 C         140.4130  140.7211  170.7389 C.ar    1  UNL1        0.0294
     13 C         139.4411  140.5094  169.6162 C.ar    1  UNL1        0.1414
     14 F         138.0897  139.9212  169.8950 F       1  UNL1       -0.2041
     15 C         139.8206  140.8859  168.2147 C.ar    1  UNL1        0.0438
     16 C         141.1720  141.4740  167.9360 C.ar    1  UNL1        0.0461
     17 C         138.1288  141.7629  158.4610 C.ar    1  UNL1        0.1705
     18 C         138.3478  140.4833  159.2124 C.ar    1  UNL1        0.0421
     19 C         138.9634  140.5127  160.5800 C.ar    1  UNL1        0.0393
     20 C         139.3599  141.8215  161.1961 C.ar    1  UNL1        0.1536
     21 N         139.1409  143.1011  160.4447 N.ar    1  UNL1       -0.1315
     22 N         138.5253  143.0718  159.0771 N.ar    1  UNL1       -0.1286
     23 C         134.8700  140.7091  154.4423 C.3     1  UNL1        0.0538
     24 C         136.0153  141.2493  155.2463 C.ar    1  UNL1        0.0786
     25 C         136.2604  141.0056  156.7059 C.ar    1  UNL1        0.0976
     26 N         137.5133  141.7337  157.0934 N.ar    1  UNL1       -0.2702
     27 C         138.0425  142.4275  155.8734 C.ar    1  UNL1        0.1837
     28 N         137.1167  142.1281  154.7317 N.ar    1  UNL1       -0.2280
@<TRIPOS>BOND
     1    23    24    1
     2    24    25   ar
     3    25    26   ar
     4    26    17    1
     5    17    18   ar
     6    18    19   ar
     7    19    20   ar
     8    20     1    1
     9     1     2    1
    10     2     3    1
    11     3     4    1
    12     4     7    1
    13     7     8    1
    14     8     9    1
    15     9    10    1
    16    10    11   ar
    17    11    12   ar
    18    12    13   ar
    19    13    14    1
    20    13    15   ar
    21    15    16   ar
    22     4     5    1
    23     5     6    1
    24    20    21   ar
    25    21    22   ar
    26    26    27   ar
    27    27    28   ar
    28    28    24   ar
    29    22    17   ar
    30     6     1    1
    31    16     7    1
    32    16    10   ar
@<TRIPOS>MOLECULE
*****
 28 32 0 0 0
SMALL
GASTEIGER

@<TRIPOS>ATOM
      1 N         141.9668  139.2365  161.3416 N.pl3   1  UNL1       -0.2917
      2 C         140.8000  140.0087  161.8822 C.3     1  UNL1        0.0939
      3 C         140.8583  140.5848  163.2659 C.3     1  UNL1        0.0412
      4 C         142.0834  140.3887  164.1091 C.3     1  UNL1        0.0762
      5 C         143.2501  139.6165  163.5684 C.3     1  UNL1        0.0412
      6 C         143.1918  139.0404  162.1847 C.3     1  UNL1        0.0939
      7 N         142.1417  140.9649  165.4928 N.pl3   1  UNL1       -0.3088
      8 C         143.1979  141.8912  166.0184 C.3     1  UNL1        0.0954
      9 C         142.8629  142.2146  167.4443 C.3     1  UNL1        0.0490
     10 C         141.5997  141.4882  167.7999 C.ar    1  UNL1       -0.0070
     11 C         140.7977  141.4302  169.0662 C.ar    1  UNL1       -0.0007
     12 C         139.5500  140.5999  169.1263 C.ar    1  UNL1        0.0294
     13 C         139.1042  139.8275  167.9202 C.ar    1  UNL1        0.1414
     14 F         137.8564  138.9971  167.9804 F       1  UNL1       -0.2041
     15 C         139.9062  139.8854  166.6540 C.ar    1  UNL1        0.0438
     16 C         141.1539  140.7158  166.5938 C.ar    1  UNL1        0.0461
     17 C         141.7919  137.5081  157.1905 C.ar    1  UNL1        0.1705
     18 C         140.6150  138.2576  157.7410 C.ar    1  UNL1        0.0421
     19 C         140.6733  138.8337  159.1247 C.ar    1  UNL1        0.0393
     20 C         141.9086  138.6603  159.9579 C.ar    1  UNL1        0.1536
     21 N         143.0855  137.9108  159.4073 N.ar    1  UNL1       -0.1315
     22 N         143.0271  137.3347  158.0236 N.ar    1  UNL1       -0.1286
     23 C         141.9256  134.0990  153.1605 C.3     1  UNL1        0.0538
     24 C         141.7951  135.3649  153.9544 C.ar    1  UNL1        0.0786
     25 C         141.9439  135.4924  155.4416 C.ar    1  UNL1        0.0976
     26 N         141.7337  136.9320  155.8067 N.ar    1  UNL1       -0.2702
     27 C         141.4549  137.6943  154.5453 C.ar    1  UNL1        0.1837
     28 N         141.4929  136.7258  153.4004 N.ar    1  UNL1       -0.2280
@<TRIPOS>BOND
     1    23    24    1
     2    24    25   ar
     3    25    26   ar
     4    26    17    1
     5    17    18   ar
     6    18    19   ar
     7    19    20   ar
     8    20     1    1
     9     1     2    1
    10     2     3    1
    11     3     4    1
    12     4     7    1
    13     7     8    1
    14     8     9    1
    15     9    10    1
    16    10    11   ar
    17    11    12   ar
    18    12    13   ar
    19    13    14    1
    20    13    15   ar
    21    15    16   ar
    22     4     5    1
    23     5     6    1
    24    20    21   ar
    25    21    22   ar
    26    26    27   ar
    27    27    28   ar
    28    28    24   ar
    29    22    17   ar
    30     6     1    1
    31    16     7    1
    32    16    10   ar
@<TRIPOS>MOLECULE
*****
 28 32 0 0 0
SMALL
GASTEIGER

@<TRIPOS>ATOM
      1 N         141.2284  138.6007  158.2445 N.pl3   1  UNL1       -0.2917
      2 C         140.1279  138.1087  157.3519 C.3     1  UNL1        0.0939
      3 C         140.3810  136.9723  156.4060 C.3     1  UNL1        0.0412
      4 C         141.7346  136.3279  156.3529 C.3     1  UNL1        0.0762
      5 C         142.8349  136.8200  157.2456 C.3     1  UNL1        0.0412
      6 C         142.5819  137.9564  158.1914 C.3     1  UNL1        0.0939
      7 N         141.9876  135.1915  155.4071 N.pl3   1  UNL1       -0.3088
      8 C         141.5347  135.1153  153.9792 C.3     1  UNL1        0.0954
      9 C         142.0052  133.8085  153.4128 C.3     1  UNL1        0.0490
     10 C         142.7489  133.0770  154.4907 C.ar    1  UNL1       -0.0070
     11 C         143.4346  131.7431  154.5090 C.ar    1  UNL1       -0.0007
     12 C         144.1094  131.2639  155.7600 C.ar    1  UNL1        0.0294
     13 C         144.0986  132.1186  156.9926 C.ar    1  UNL1        0.1414
     14 F         144.7735  131.6394  158.2436 F       1  UNL1       -0.2041
     15 C         143.4129  133.4526  156.9742 C.ar    1  UNL1        0.0438
     16 C         142.7381  133.9318  155.7232 C.ar    1  UNL1        0.0461
     17 C         140.4694  142.0100  161.0819 C.ar    1  UNL1        0.1705
     18 C         141.6173  142.0772  160.1187 C.ar    1  UNL1        0.0421
     19 C         141.8703  140.9408  159.1729 C.ar    1  UNL1        0.0393
     20 C         140.9753  139.7371  159.1904 C.ar    1  UNL1        0.1536
     21 N         139.8274  139.6699  160.1535 N.ar    1  UNL1       -0.1315
     22 N         139.5745  140.8063  161.0993 N.ar    1  UNL1       -0.1286
     23 C         138.7147  144.8333  165.1844 C.3     1  UNL1        0.0538
     24 C         139.4098  144.4441  163.9135 C.ar    1  UNL1        0.0786
     25 C         139.3927  143.0846  163.2798 C.ar    1  UNL1        0.0976
     26 N         140.2163  143.1464  162.0277 N.ar    1  UNL1       -0.2702
     27 C         140.7425  144.5440  161.8875 C.ar    1  UNL1        0.1837
     28 N         140.2440  145.3461  163.0530 N.ar    1  UNL1       -0.2280
@<TRIPOS>BOND
     1    23    24    1
     2    24    25   ar
     3    25    26   ar
     4    26    17    1
     5    17    18   ar
     6    18    19   ar
     7    19    20   ar
     8    20     1    1
     9     1     2    1
    10     2     3    1
    11     3     4    1
    12     4     7    1
    13     7     8    1
    14     8     9    1
    15     9    10    1
    16    10    11   ar
    17    11    12   ar
    18    12    13   ar
    19    13    14    1
    20    13    15   ar
    21    15    16   ar
    22     4     5    1
    23     5     6    1
    24    20    21   ar
    25    21    22   ar
    26    26    27   ar
    27    27    28   ar
    28    28    24   ar
    29    22    17   ar
    30     6     1    1
    31    16     7    1
    32    16    10   ar
@<TRIPOS>MOLECULE
*****
 28 32 0 0 0
SMALL
GASTEIGER

@<TRIPOS>ATOM
      1 N         141.4282  142.3204  161.7241 N.pl3   1  UNL1       -0.2917
      2 C         142.8199  142.4301  162.2729 C.3     1  UNL1        0.0939
      3 C         143.2119  141.6408  163.4867 C.3     1  UNL1        0.0412
      4 C         142.2121  140.7416  164.1518 C.3     1  UNL1        0.0762
      5 C         140.8205  140.6320  163.6030 C.3     1  UNL1        0.0412
      6 C         140.4285  141.4213  162.3892 C.3     1  UNL1        0.0939
      7 N         142.6041  139.9523  165.3656 N.pl3   1  UNL1       -0.3088
      8 C         143.5380  138.7788  165.3904 C.3     1  UNL1        0.0954
      9 C         143.6421  138.2992  166.8078 C.3     1  UNL1        0.0490
     10 C         142.7725  139.1762  167.6590 C.ar    1  UNL1       -0.0070
     11 C         142.4819  139.1765  169.1306 C.ar    1  UNL1       -0.0007
     12 C         141.5498  140.1985  169.7107 C.ar    1  UNL1        0.0294
     13 C         140.9083  141.2202  168.8194 C.ar    1  UNL1        0.1414
     14 F         139.9761  142.2423  169.3996 F       1  UNL1       -0.2041
     15 C         141.1988  141.2199  167.3478 C.ar    1  UNL1        0.0438
     16 C         142.1309  140.1979  166.7676 C.ar    1  UNL1        0.0461
     17 C         140.2524  144.6884  158.0828 C.ar    1  UNL1        0.1705
     18 C         141.0300  145.3444  159.1851 C.ar    1  UNL1        0.0421
     19 C         141.4219  144.5549  160.3989 C.ar    1  UNL1        0.0393
     20 C         141.0363  143.1097  160.5103 C.ar    1  UNL1        0.1536
     21 N         140.2586  142.4538  159.4081 N.ar    1  UNL1       -0.1315
     22 N         139.8667  143.2432  158.1943 N.ar    1  UNL1       -0.1286
     23 C         139.1338  148.7171  154.8581 C.3     1  UNL1        0.0538
     24 C         139.3462  147.3296  155.3868 C.ar    1  UNL1        0.0786
     25 C         139.7741  146.9726  156.7795 C.ar    1  UNL1        0.0976
     26 N         139.8604  145.4778  156.8690 N.ar    1  UNL1       -0.2702
     27 C         139.4859  144.9109  155.5317 C.ar    1  UNL1        0.1837
     28 N         139.1681  146.0554  154.6156 N.ar    1  UNL1       -0.2280
@<TRIPOS>BOND
     1    23    24    1
     2    24    25   ar
     3    25    26   ar
     4    26    17    1
     5    17    18   ar
     6    18    19   ar
     7    19    20   ar
     8    20     1    1
     9     1     2    1
    10     2     3    1
    11     3     4    1
    12     4     7    1
    13     7     8    1
    14     8     9    1
    15     9    10    1
    16    10    11   ar
    17    11    12   ar
    18    12    13   ar
    19    13    14    1
    20    13    15   ar
    21    15    16   ar
    22     4     5    1
    23     5     6    1
    24    20    21   ar
    25    21    22   ar
    26    26    27   ar
    27    27    28   ar
    28    28    24   ar
    29    22    17   ar
    30     6     1    1
    31    16     7    1
    32    16    10   ar
