@<TRIPOS>MOLECULE
*****
 30 33 0 0 0
SMALL
GASTEIGER

@<TRIPOS>ATOM
      1 N         141.5299  139.5592  163.6591 N.pl3   1  UNL1       -0.2905
      2 C         140.3890  140.5218  163.8063 C.3     1  UNL1        0.0926
      3 C         140.0441  141.0752  165.1572 C.3     1  UNL1        0.0273
      4 C         140.8402  140.6659  166.3609 C.3     1  UNL1        0.0422
      5 C         141.9811  139.7033  166.2137 C.3     1  UNL1        0.0750
      6 N         142.7772  139.2941  167.4173 N.3     1  UNL1       -0.3206
      7 C         142.3260  139.1500  164.8627 C.3     1  UNL1        0.1079
      8 H         143.5076  138.6402  167.1356 H       1  UNL1        0.1189
      9 H         142.1617  138.8448  168.0953 H       1  UNL1        0.1189
     10 C         142.2476  136.8441  155.7938 C.3     1  UNL1        0.0523
     11 C         141.9028  137.3974  157.1447 C.ar    1  UNL1        0.0658
     12 C         140.5513  138.0024  157.3847 C.ar    1  UNL1        0.0773
     13 C         140.2064  138.5558  158.7355 C.ar    1  UNL1        0.2830
     14 O         138.8550  139.1608  158.9755 O.2     1  UNL1       -0.2651
     15 N         141.2130  138.5041  159.8465 N.ar    1  UNL1       -0.1755
     16 N         140.8682  139.0575  161.1973 N.ar    1  UNL1       -0.1461
     17 C         141.8747  139.0058  162.3082 C.ar    1  UNL1        0.1521
     18 C         143.2262  138.4009  162.0682 C.ar    1  UNL1        0.0392
     19 C         143.5711  137.8475  160.7174 C.ar    1  UNL1        0.0418
     20 C         142.5645  137.8992  159.6065 C.ar    1  UNL1        0.1667
     21 N         142.9093  137.3458  158.2556 N.ar    1  UNL1       -0.2306
     22 C         140.4953  141.2193  167.7117 C.ar    1  UNL1        0.0087
     23 C         141.1214  142.4995  168.1800 C.ar    1  UNL1        0.0300
     24 C         140.7765  143.0528  169.5308 C.ar    1  UNL1        0.1672
     25 F         141.4025  144.3330  169.9990 F       1  UNL1       -0.2018
     26 C         139.8055  142.3260  170.4135 C.ar    1  UNL1        0.1696
     27 F         139.4607  142.8794  171.7643 F       1  UNL1       -0.2017
     28 C         139.1795  141.0458  169.9453 C.ar    1  UNL1        0.0612
     29 C         139.5244  140.4925  168.5943 C.ar    1  UNL1        0.1386
     30 F         138.8984  139.2123  168.1261 F       1  UNL1       -0.2044
@<TRIPOS>BOND
     1    10    11    1
     2    11    12   ar
     3    12    13   ar
     4    13    14    2
     5    13    15   ar
     6    15    16   ar
     7    16    17   ar
     8    17     1    1
     9     1     2    1
    10     2     3    1
    11     3     4    1
    12     4    22    1
    13    22    23   ar
    14    23    24   ar
    15    24    25    1
    16    24    26   ar
    17    26    27    1
    18    26    28   ar
    19    28    29   ar
    20    29    30    1
    21     4     5    1
    22     5     6    1
    23     5     7    1
    24    17    18   ar
    25    18    19   ar
    26    19    20   ar
    27    20    21   ar
    28    21    11   ar
    29    20    15   ar
    30     7     1    1
    31    29    22   ar
    32     6     8    1
    33     6     9    1
@<TRIPOS>MOLECULE
*****
 30 33 0 0 0
SMALL
GASTEIGER

@<TRIPOS>ATOM
      1 N         142.7006  142.5828  162.8812 N.pl3   1  UNL1       -0.2905
      2 C         143.9976  142.1898  163.5242 C.3     1  UNL1        0.0926
      3 C         144.0266  141.7856  164.9684 C.3     1  UNL1        0.0273
      4 C         142.7586  141.7744  165.7697 C.3     1  UNL1        0.0422
      5 C         141.4616  142.1674  165.1268 C.3     1  UNL1        0.0750
      6 N         140.1936  142.1562  165.9280 N.3     1  UNL1       -0.3206
      7 C         141.4327  142.5716  163.6825 C.3     1  UNL1        0.1079
      8 H         139.4154  142.4488  165.3371 H       1  UNL1        0.1189
      9 H         140.2831  142.7988  166.7151 H       1  UNL1        0.1189
     10 C         141.5539  145.6132  155.1837 C.3     1  UNL1        0.0523
     11 C         141.5829  145.2090  156.6279 C.ar    1  UNL1        0.0658
     12 C         140.6098  145.8142  157.5958 C.ar    1  UNL1        0.0773
     13 C         140.6387  145.4101  159.0400 C.ar    1  UNL1        0.2830
     14 O         139.6656  146.0153  160.0078 O.2     1  UNL1       -0.2651
     15 N         141.6407  144.4006  159.5164 N.ar    1  UNL1       -0.1755
     16 N         141.6697  143.9964  160.9606 N.ar    1  UNL1       -0.1461
     17 C         142.6717  142.9870  161.4370 C.ar    1  UNL1        0.1521
     18 C         143.6448  142.3818  160.4691 C.ar    1  UNL1        0.0392
     19 C         143.6159  142.7859  159.0249 C.ar    1  UNL1        0.0418
     20 C         142.6139  143.7954  158.5486 C.ar    1  UNL1        0.1667
     21 N         142.5849  144.1996  157.1043 N.ar    1  UNL1       -0.2306
     22 C         142.7876  141.3702  167.2139 C.ar    1  UNL1        0.0087
     23 C         143.0854  142.3904  168.2724 C.ar    1  UNL1        0.0300
     24 C         143.1144  141.9862  169.7166 C.ar    1  UNL1        0.1672
     25 F         143.4123  143.0064  170.7752 F       1  UNL1       -0.2018
     26 C         142.8456  140.5617  170.1023 C.ar    1  UNL1        0.1696
     27 F         142.8746  140.1575  171.5465 F       1  UNL1       -0.2017
     28 C         142.5478  139.5415  169.0438 C.ar    1  UNL1        0.0612
     29 C         142.5188  139.9458  167.5995 C.ar    1  UNL1        0.1386
     30 F         142.2210  138.9256  166.5410 F       1  UNL1       -0.2044
@<TRIPOS>BOND
     1    10    11    1
     2    11    12   ar
     3    12    13   ar
     4    13    14    2
     5    13    15   ar
     6    15    16   ar
     7    16    17   ar
     8    17     1    1
     9     1     2    1
    10     2     3    1
    11     3     4    1
    12     4    22    1
    13    22    23   ar
    14    23    24   ar
    15    24    25    1
    16    24    26   ar
    17    26    27    1
    18    26    28   ar
    19    28    29   ar
    20    29    30    1
    21     4     5    1
    22     5     6    1
    23     5     7    1
    24    17    18   ar
    25    18    19   ar
    26    19    20   ar
    27    20    21   ar
    28    21    11   ar
    29    20    15   ar
    30     7     1    1
    31    29    22   ar
    32     6     8    1
    33     6     9    1
@<TRIPOS>MOLECULE
*****
 30 33 0 0 0
SMALL
GASTEIGER

@<TRIPOS>ATOM
      1 N         142.3149  139.3782  162.7675 N.pl3   1  UNL1       -0.2905
      2 C         142.0270  138.1563  163.5886 C.3     1  UNL1        0.0926
      3 C         141.7021  138.2919  165.0467 C.3     1  UNL1        0.0273
      4 C         141.6650  139.6495  165.6837 C.3     1  UNL1        0.0422
      5 C         141.9528  140.8713  164.8626 C.3     1  UNL1        0.0750
      6 N         141.9157  142.2288  165.4996 N.3     1  UNL1       -0.3206
      7 C         142.2778  140.7357  163.4045 C.3     1  UNL1        0.1079
      8 H         142.1342  142.9386  164.8004 H       1  UNL1        0.1189
      9 H         142.6030  142.2702  166.2522 H       1  UNL1        0.1189
     10 C         144.6169  139.8244  154.7518 C.3     1  UNL1        0.0523
     11 C         144.2920  139.9601  156.2099 C.ar    1  UNL1        0.0658
     12 C         144.6445  141.2205  156.9427 C.ar    1  UNL1        0.0773
     13 C         144.3196  141.3563  158.4007 C.ar    1  UNL1        0.2830
     14 O         144.6720  142.6167  159.1335 O.2     1  UNL1       -0.2651
     15 N         143.6421  140.2315  159.1261 N.ar    1  UNL1       -0.1755
     16 N         143.3172  140.3672  160.5841 N.ar    1  UNL1       -0.1461
     17 C         142.6398  139.2425  161.3094 C.ar    1  UNL1        0.1521
     18 C         142.2873  137.9820  160.5766 C.ar    1  UNL1        0.0392
     19 C         142.6122  137.8463  159.1186 C.ar    1  UNL1        0.0418
     20 C         143.2896  138.9710  158.3933 C.ar    1  UNL1        0.1667
     21 N         143.6146  138.8353  156.9352 N.ar    1  UNL1       -0.2306
     22 C         141.3400  139.7851  167.1418 C.ar    1  UNL1        0.0087
     23 C         142.4216  139.6273  168.1691 C.ar    1  UNL1        0.0300
     24 C         142.0967  139.7630  169.6271 C.ar    1  UNL1        0.1672
     25 F         143.1782  139.6052  170.6544 F       1  UNL1       -0.2018
     26 C         140.6901  140.0564  170.0580 C.ar    1  UNL1        0.1696
     27 F         140.3651  140.1920  171.5160 F       1  UNL1       -0.2017
     28 C         139.6085  140.2141  169.0307 C.ar    1  UNL1        0.0612
     29 C         139.9335  140.0785  167.5725 C.ar    1  UNL1        0.1386
     30 F         138.8520  140.2363  166.5452 F       1  UNL1       -0.2044
@<TRIPOS>BOND
     1    10    11    1
     2    11    12   ar
     3    12    13   ar
     4    13    14    2
     5    13    15   ar
     6    15    16   ar
     7    16    17   ar
     8    17     1    1
     9     1     2    1
    10     2     3    1
    11     3     4    1
    12     4    22    1
    13    22    23   ar
    14    23    24   ar
    15    24    25    1
    16    24    26   ar
    17    26    27    1
    18    26    28   ar
    19    28    29   ar
    20    29    30    1
    21     4     5    1
    22     5     6    1
    23     5     7    1
    24    17    18   ar
    25    18    19   ar
    26    19    20   ar
    27    20    21   ar
    28    21    11   ar
    29    20    15   ar
    30     7     1    1
    31    29    22   ar
    32     6     8    1
    33     6     9    1
@<TRIPOS>MOLECULE
*****
 30 33 0 0 0
SMALL
GASTEIGER

@<TRIPOS>ATOM
      1 N         139.5722  140.3192  163.0436 N.pl3   1  UNL1       -0.2905
      2 C         138.6630  141.2866  163.7418 C.3     1  UNL1        0.0926
      3 C         138.8344  141.5524  165.2081 C.3     1  UNL1        0.0273
      4 C         139.9150  140.8507  165.9762 C.3     1  UNL1        0.0422
      5 C         140.8242  139.8832  165.2780 C.3     1  UNL1        0.0750
      6 N         141.9047  139.1816  166.0461 N.3     1  UNL1       -0.3206
      7 C         140.6527  139.6175  163.8117 C.3     1  UNL1        0.1079
      8 H         142.4227  138.5661  165.4190 H       1  UNL1        0.1189
      9 H         141.4861  138.6298  166.7949 H       1  UNL1        0.1189
     10 C         139.7814  138.2584  154.9529 C.3     1  UNL1        0.0523
     11 C         139.9528  138.5241  156.4192 C.ar    1  UNL1        0.0658
     12 C         141.1907  138.0576  157.1263 C.ar    1  UNL1        0.0773
     13 C         141.3622  138.3232  158.5925 C.ar    1  UNL1        0.2830
     14 O         142.6001  137.8567  159.2996 O.2     1  UNL1       -0.2651
     15 N         140.2957  139.0555  159.3518 N.ar    1  UNL1       -0.1755
     16 N         140.4672  139.3212  160.8181 N.ar    1  UNL1       -0.1461
     17 C         139.4007  140.0535  161.5773 C.ar    1  UNL1        0.1521
     18 C         138.1628  140.5201  160.8703 C.ar    1  UNL1        0.0392
     19 C         137.9914  140.2544  159.4040 C.ar    1  UNL1        0.0418
     20 C         139.0578  139.5221  158.6448 C.ar    1  UNL1        0.1667
     21 N         138.8864  139.2564  157.1784 N.ar    1  UNL1       -0.2306
     22 C         140.0864  141.1164  167.4425 C.ar    1  UNL1        0.0087
     23 C         140.9653  142.2413  167.9032 C.ar    1  UNL1        0.0300
     24 C         141.1367  142.5070  169.3694 C.ar    1  UNL1        0.1672
     25 F         142.0156  143.6319  169.8301 F       1  UNL1       -0.2018
     26 C         140.4291  141.6479  170.3751 C.ar    1  UNL1        0.1696
     27 F         140.6005  141.9136  171.8414 F       1  UNL1       -0.2017
     28 C         139.5502  140.5230  169.9145 C.ar    1  UNL1        0.0612
     29 C         139.3789  140.2573  168.4481 C.ar    1  UNL1        0.1386
     30 F         138.5000  139.1324  167.9874 F       1  UNL1       -0.2044
@<TRIPOS>BOND
     1    10    11    1
     2    11    12   ar
     3    12    13   ar
     4    13    14    2
     5    13    15   ar
     6    15    16   ar
     7    16    17   ar
     8    17     1    1
     9     1     2    1
    10     2     3    1
    11     3     4    1
    12     4    22    1
    13    22    23   ar
    14    23    24   ar
    15    24    25    1
    16    24    26   ar
    17    26    27    1
    18    26    28   ar
    19    28    29   ar
    20    29    30    1
    21     4     5    1
    22     5     6    1
    23     5     7    1
    24    17    18   ar
    25    18    19   ar
    26    19    20   ar
    27    20    21   ar
    28    21    11   ar
    29    20    15   ar
    30     7     1    1
    31    29    22   ar
    32     6     8    1
    33     6     9    1
@<TRIPOS>MOLECULE
*****
 30 33 0 0 0
SMALL
GASTEIGER

@<TRIPOS>ATOM
      1 N         141.4630  139.3720  163.2235 N.pl3   1  UNL1       -0.2905
      2 C         142.5933  139.7784  164.1220 C.3     1  UNL1        0.0926
      3 C         142.3051  140.3373  165.4838 C.3     1  UNL1        0.0273
      4 C         140.8866  140.4896  165.9472 C.3     1  UNL1        0.0422
      5 C         139.7563  140.0831  165.0487 C.3     1  UNL1        0.0750
      6 N         138.3378  140.2355  165.5121 N.3     1  UNL1       -0.3206
      7 C         140.0446  139.5243  163.6868 C.3     1  UNL1        0.1079
      8 H         137.7047  139.9127  164.7804 H       1  UNL1        0.1189
      9 H         138.1501  141.2172  165.7154 H       1  UNL1        0.1189
     10 C         141.8998  136.7340  155.3114 C.3     1  UNL1        0.0523
     11 C         141.6115  137.2929  156.6733 C.ar    1  UNL1        0.0658
     12 C         140.3186  138.0079  156.9323 C.ar    1  UNL1        0.0773
     13 C         140.0303  138.5667  158.2941 C.ar    1  UNL1        0.2830
     14 O         138.7373  139.2818  158.5531 O.2     1  UNL1       -0.2651
     15 N         141.0349  138.4105  159.3970 N.ar    1  UNL1       -0.1755
     16 N         140.7466  138.9693  160.7588 N.ar    1  UNL1       -0.1461
     17 C         141.7513  138.8131  161.8616 C.ar    1  UNL1        0.1521
     18 C         143.0442  138.0981  161.6026 C.ar    1  UNL1        0.0392
     19 C         143.3325  137.5393  160.2408 C.ar    1  UNL1        0.0418
     20 C         142.3279  137.6955  159.1380 C.ar    1  UNL1        0.1667
     21 N         142.6161  137.1367  157.7761 N.ar    1  UNL1       -0.2306
     22 C         140.5984  141.0484  167.3091 C.ar    1  UNL1        0.0087
     23 C         140.3621  140.1223  168.4652 C.ar    1  UNL1        0.0300
     24 C         140.0739  140.6811  169.8270 C.ar    1  UNL1        0.1672
     25 F         139.8376  139.7551  170.9831 F       1  UNL1       -0.2018
     26 C         140.0219  142.1661  170.0328 C.ar    1  UNL1        0.1696
     27 F         139.7337  142.7249  171.3946 F       1  UNL1       -0.2017
     28 C         140.2582  143.0922  168.8767 C.ar    1  UNL1        0.0612
     29 C         140.5465  142.5333  167.5148 C.ar    1  UNL1        0.1386
     30 F         140.7828  143.4594  166.3587 F       1  UNL1       -0.2044
@<TRIPOS>BOND
     1    10    11    1
     2    11    12   ar
     3    12    13   ar
     4    13    14    2
     5    13    15   ar
     6    15    16   ar
     7    16    17   ar
     8    17     1    1
     9     1     2    1
    10     2     3    1
    11     3     4    1
    12     4    22    1
    13    22    23   ar
    14    23    24   ar
    15    24    25    1
    16    24    26   ar
    17    26    27    1
    18    26    28   ar
    19    28    29   ar
    20    29    30    1
    21     4     5    1
    22     5     6    1
    23     5     7    1
    24    17    18   ar
    25    18    19   ar
    26    19    20   ar
    27    20    21   ar
    28    21    11   ar
    29    20    15   ar
    30     7     1    1
    31    29    22   ar
    32     6     8    1
    33     6     9    1
@<TRIPOS>MOLECULE
*****
 30 33 0 0 0
SMALL
GASTEIGER

@<TRIPOS>ATOM
      1 N         141.3910  138.7802  162.2888 N.pl3   1  UNL1       -0.2905
      2 C         141.1569  137.6299  163.2227 C.3     1  UNL1        0.0926
      3 C         141.0970  137.8658  164.7028 C.3     1  UNL1        0.0273
      4 C         141.2713  139.2519  165.2491 C.3     1  UNL1        0.0422
      5 C         141.5054  140.4021  164.3152 C.3     1  UNL1        0.0750
      6 N         141.6796  141.7882  164.8614 N.3     1  UNL1       -0.3206
      7 C         141.5652  140.1662  162.8350 C.3     1  UNL1        0.1079
      8 H         141.8279  142.4408  164.0917 H       1  UNL1        0.1189
      9 H         142.4865  141.8089  165.4850 H       1  UNL1        0.1189
     10 C         140.5726  138.0748  154.0072 C.3     1  UNL1        0.0523
     11 C         140.5128  138.3107  155.4874 C.ar    1  UNL1        0.0658
     12 C         139.3351  139.0207  156.0867 C.ar    1  UNL1        0.0773
     13 C         139.2752  139.2566  157.5668 C.ar    1  UNL1        0.2830
     14 O         138.0976  139.9666  158.1661 O.2     1  UNL1       -0.2651
     15 N         140.3930  138.7825  158.4477 N.ar    1  UNL1       -0.1755
     16 N         140.3331  139.0184  159.9278 N.ar    1  UNL1       -0.1461
     17 C         141.4508  138.5443  160.8086 C.ar    1  UNL1        0.1521
     18 C         142.6285  137.8343  160.2093 C.ar    1  UNL1        0.0392
     19 C         142.6884  137.5984  158.7292 C.ar    1  UNL1        0.0418
     20 C         141.5706  138.0725  157.8484 C.ar    1  UNL1        0.1667
     21 N         141.6305  137.8366  156.3682 N.ar    1  UNL1       -0.2306
     22 C         141.2114  139.4877  166.7292 C.ar    1  UNL1        0.0087
     23 C         139.9162  139.8838  167.3737 C.ar    1  UNL1        0.0300
     24 C         139.8563  140.1196  168.8539 C.ar    1  UNL1        0.1672
     25 F         138.5611  140.5157  169.4984 F       1  UNL1       -0.2018
     26 C         141.0917  139.9593  169.6895 C.ar    1  UNL1        0.1696
     27 F         141.0318  140.1952  171.1696 F       1  UNL1       -0.2017
     28 C         142.3869  139.5632  169.0449 C.ar    1  UNL1        0.0612
     29 C         142.4468  139.3274  167.5647 C.ar    1  UNL1        0.1386
     30 F         143.7420  138.9313  166.9201 F       1  UNL1       -0.2044
@<TRIPOS>BOND
     1    10    11    1
     2    11    12   ar
     3    12    13   ar
     4    13    14    2
     5    13    15   ar
     6    15    16   ar
     7    16    17   ar
     8    17     1    1
     9     1     2    1
    10     2     3    1
    11     3     4    1
    12     4    22    1
    13    22    23   ar
    14    23    24   ar
    15    24    25    1
    16    24    26   ar
    17    26    27    1
    18    26    28   ar
    19    28    29   ar
    20    29    30    1
    21     4     5    1
    22     5     6    1
    23     5     7    1
    24    17    18   ar
    25    18    19   ar
    26    19    20   ar
    27    20    21   ar
    28    21    11   ar
    29    20    15   ar
    30     7     1    1
    31    29    22   ar
    32     6     8    1
    33     6     9    1
@<TRIPOS>MOLECULE
*****
 30 33 0 0 0
SMALL
GASTEIGER

@<TRIPOS>ATOM
      1 N         140.3425  143.0611  162.2571 N.pl3   1  UNL1       -0.2905
      2 C         140.7496  144.2710  163.0448 C.3     1  UNL1        0.0926
      3 C         141.0931  144.1386  164.4989 C.3     1  UNL1        0.0273
      4 C         141.0296  142.7963  165.1654 C.3     1  UNL1        0.0422
      5 C         140.6225  141.5864  164.3777 C.3     1  UNL1        0.0750
      6 N         140.5589  140.2441  165.0441 N.3     1  UNL1       -0.3206
      7 C         140.2790  141.7188  162.9235 C.3     1  UNL1        0.1079
      8 H         140.2667  139.5410  164.3654 H       1  UNL1        0.1189
      9 H         139.8869  140.2766  165.8107 H       1  UNL1        0.1189
     10 C         139.3972  144.6702  154.1166 C.3     1  UNL1        0.0523
     11 C         139.7407  144.5378  155.5707 C.ar    1  UNL1        0.0658
     12 C         140.8566  145.3524  156.1550 C.ar    1  UNL1        0.0773
     13 C         141.2001  145.2200  157.6091 C.ar    1  UNL1        0.2830
     14 O         142.3159  146.0346  158.1933 O.2     1  UNL1       -0.2651
     15 N         140.4278  144.2730  158.4790 N.ar    1  UNL1       -0.1755
     16 N         140.7713  144.1406  159.9331 N.ar    1  UNL1       -0.1461
     17 C         139.9990  143.1936  160.8029 C.ar    1  UNL1        0.1521
     18 C         138.8832  142.3789  160.2187 C.ar    1  UNL1        0.0392
     19 C         138.5397  142.5113  158.7646 C.ar    1  UNL1        0.0418
     20 C         139.3120  143.4584  157.8948 C.ar    1  UNL1        0.1667
     21 N         138.9685  143.5908  156.4406 N.ar    1  UNL1       -0.2306
     22 C         141.3731  142.6639  166.6194 C.ar    1  UNL1        0.0087
     23 C         140.3227  142.9036  167.6631 C.ar    1  UNL1        0.0300
     24 C         140.6662  142.7712  169.1172 C.ar    1  UNL1        0.1672
     25 F         139.6158  143.0109  170.1608 F       1  UNL1       -0.2018
     26 C         142.0601  142.3991  169.5277 C.ar    1  UNL1        0.1696
     27 F         142.4036  142.2667  170.9818 F       1  UNL1       -0.2017
     28 C         143.1105  142.1594  168.4841 C.ar    1  UNL1        0.0612
     29 C         142.7670  142.2918  167.0299 C.ar    1  UNL1        0.1386
     30 F         143.8174  142.0521  165.9863 F       1  UNL1       -0.2044
@<TRIPOS>BOND
     1    10    11    1
     2    11    12   ar
     3    12    13   ar
     4    13    14    2
     5    13    15   ar
     6    15    16   ar
     7    16    17   ar
     8    17     1    1
     9     1     2    1
    10     2     3    1
    11     3     4    1
    12     4    22    1
    13    22    23   ar
    14    23    24   ar
    15    24    25    1
    16    24    26   ar
    17    26    27    1
    18    26    28   ar
    19    28    29   ar
    20    29    30    1
    21     4     5    1
    22     5     6    1
    23     5     7    1
    24    17    18   ar
    25    18    19   ar
    26    19    20   ar
    27    20    21   ar
    28    21    11   ar
    29    20    15   ar
    30     7     1    1
    31    29    22   ar
    32     6     8    1
    33     6     9    1
@<TRIPOS>MOLECULE
*****
 30 33 0 0 0
SMALL
GASTEIGER

@<TRIPOS>ATOM
      1 N         140.3184  143.2486  163.0794 N.pl3   1  UNL1       -0.2905
      2 C         139.5671  143.9996  164.1384 C.3     1  UNL1        0.0926
      3 C         139.6332  143.5486  165.5675 C.3     1  UNL1        0.0273
      4 C         140.4508  142.3467  165.9376 C.3     1  UNL1        0.0422
      5 C         141.2021  141.5957  164.8786 C.3     1  UNL1        0.0750
      6 N         142.0197  140.3937  165.2486 N.3     1  UNL1       -0.3206
      7 C         141.1359  142.0467  163.4495 C.3     1  UNL1        0.1079
      8 H         142.4586  140.0103  164.4115 H       1  UNL1        0.1189
      9 H         141.4154  139.6879  165.6694 H       1  UNL1        0.1189
     10 C         139.2230  144.6959  154.9273 C.3     1  UNL1        0.0523
     11 C         139.2892  144.2449  156.3565 C.ar    1  UNL1        0.0658
     12 C         138.5911  142.9863  156.7788 C.ar    1  UNL1        0.0773
     13 C         138.6573  142.5353  158.2078 C.ar    1  UNL1        0.2830
     14 O         137.9591  141.2766  158.6302 O.2     1  UNL1       -0.2651
     15 N         139.4216  143.3429  159.2146 N.ar    1  UNL1       -0.1755
     16 N         139.4878  142.8919  160.6436 N.ar    1  UNL1       -0.1461
     17 C         140.2522  143.6996  161.6503 C.ar    1  UNL1        0.1521
     18 C         140.9503  144.9582  161.2280 C.ar    1  UNL1        0.0392
     19 C         140.8841  145.4092  159.7989 C.ar    1  UNL1        0.0418
     20 C         140.1198  144.6016  158.7923 C.ar    1  UNL1        0.1667
     21 N         140.0536  145.0526  157.3631 N.ar    1  UNL1       -0.2306
     22 C         140.5170  141.8957  167.3666 C.ar    1  UNL1        0.0087
     23 C         141.3617  142.6477  168.3521 C.ar    1  UNL1        0.0300
     24 C         141.4279  142.1968  169.7811 C.ar    1  UNL1        0.1672
     25 F         142.2725  142.9488  170.7665 F       1  UNL1       -0.2018
     26 C         140.6494  140.9938  170.2248 C.ar    1  UNL1        0.1696
     27 F         140.7155  140.5429  171.6539 F       1  UNL1       -0.2017
     28 C         139.8047  140.2418  169.2394 C.ar    1  UNL1        0.0612
     29 C         139.7385  140.6928  167.8103 C.ar    1  UNL1        0.1386
     30 F         138.8939  139.9408  166.8249 F       1  UNL1       -0.2044
@<TRIPOS>BOND
     1    10    11    1
     2    11    12   ar
     3    12    13   ar
     4    13    14    2
     5    13    15   ar
     6    15    16   ar
     7    16    17   ar
     8    17     1    1
     9     1     2    1
    10     2     3    1
    11     3     4    1
    12     4    22    1
    13    22    23   ar
    14    23    24   ar
    15    24    25    1
    16    24    26   ar
    17    26    27    1
    18    26    28   ar
    19    28    29   ar
    20    29    30    1
    21     4     5    1
    22     5     6    1
    23     5     7    1
    24    17    18   ar
    25    18    19   ar
    26    19    20   ar
    27    20    21   ar
    28    21    11   ar
    29    20    15   ar
    30     7     1    1
    31    29    22   ar
    32     6     8    1
    33     6     9    1
@<TRIPOS>MOLECULE
*****
 30 33 0 0 0
SMALL
GASTEIGER

@<TRIPOS>ATOM
      1 N         141.0181  143.3675  163.3936 N.pl3   1  UNL1       -0.2905
      2 C         139.9919  143.9349  164.3290 C.3     1  UNL1        0.0926
      3 C         139.9153  143.4452  165.7447 C.3     1  UNL1        0.0273
      4 C         140.8649  142.3880  166.2251 C.3     1  UNL1        0.0422
      5 C         141.8911  141.8206  165.2897 C.3     1  UNL1        0.0750
      6 N         142.8407  140.7635  165.7700 N.3     1  UNL1       -0.3206
      7 C         141.9677  142.3104  163.8739 C.3     1  UNL1        0.1079
      8 H         143.4641  140.4952  165.0086 H       1  UNL1        0.1189
      9 H         142.3127  139.9479  166.0806 H       1  UNL1        0.1189
     10 C         142.3092  145.1360  155.3340 C.3     1  UNL1        0.0523
     11 C         142.2326  144.6462  156.7498 C.ar    1  UNL1        0.0658
     12 C         143.0644  143.4762  157.1847 C.ar    1  UNL1        0.0773
     13 C         142.9879  142.9864  158.6003 C.ar    1  UNL1        0.2830
     14 O         143.8196  141.8164  159.0352 O.2     1  UNL1       -0.2651
     15 N         142.0795  143.6667  159.5813 N.ar    1  UNL1       -0.1755
     16 N         142.0030  143.1769  160.9970 N.ar    1  UNL1       -0.1461
     17 C         141.0946  143.8572  161.9778 C.ar    1  UNL1        0.1521
     18 C         140.2628  145.0273  161.5430 C.ar    1  UNL1        0.0392
     19 C         140.3394  145.5171  160.1273 C.ar    1  UNL1        0.0418
     20 C         141.2477  144.8368  159.1464 C.ar    1  UNL1        0.1667
     21 N         141.3243  145.3265  157.7307 N.ar    1  UNL1       -0.2306
     22 C         140.7883  141.8983  167.6408 C.ar    1  UNL1        0.0087
     23 C         141.6419  142.5300  168.7001 C.ar    1  UNL1        0.0300
     24 C         141.5653  142.0403  170.1158 C.ar    1  UNL1        0.1672
     25 F         142.4190  142.6720  171.1752 F       1  UNL1       -0.2018
     26 C         140.6350  140.9188  170.4723 C.ar    1  UNL1        0.1696
     27 F         140.5584  140.4291  171.8880 F       1  UNL1       -0.2017
     28 C         139.7814  140.2871  169.4129 C.ar    1  UNL1        0.0612
     29 C         139.8580  140.7769  167.9971 C.ar    1  UNL1        0.1386
     30 F         139.0044  140.1452  166.9378 F       1  UNL1       -0.2044
@<TRIPOS>BOND
     1    10    11    1
     2    11    12   ar
     3    12    13   ar
     4    13    14    2
     5    13    15   ar
     6    15    16   ar
     7    16    17   ar
     8    17     1    1
     9     1     2    1
    10     2     3    1
    11     3     4    1
    12     4    22    1
    13    22    23   ar
    14    23    24   ar
    15    24    25    1
    16    24    26   ar
    17    26    27    1
    18    26    28   ar
    19    28    29   ar
    20    29    30    1
    21     4     5    1
    22     5     6    1
    23     5     7    1
    24    17    18   ar
    25    18    19   ar
    26    19    20   ar
    27    20    21   ar
    28    21    11   ar
    29    20    15   ar
    30     7     1    1
    31    29    22   ar
    32     6     8    1
    33     6     9    1
