@<TRIPOS>MOLECULE
*****
 30 34 0 0 0
SMALL
GASTEIGER

@<TRIPOS>ATOM
      1 C         141.8267  143.4718  162.4830 C.ar    1  UNL1        0.0839
      2 C         142.8806  144.0718  163.3658 C.ar    1  UNL1        0.0192
      3 C         143.2610  143.3922  164.6477 C.ar    1  UNL1        0.0030
      4 C         142.5875  142.1127  165.0469 C.ar    1  UNL1        0.0174
      5 C         142.9680  141.4331  166.3289 C.ar    1  UNL1       -0.0027
      6 C         142.2946  140.1536  166.7280 C.ar    1  UNL1       -0.0207
      7 C         141.2407  139.5537  165.8451 C.ar    1  UNL1       -0.0027
      8 C         140.8603  140.2332  164.5632 C.ar    1  UNL1        0.0188
      9 C         141.5337  141.5127  164.1641 C.ar    1  UNL1        0.0812
     10 N         141.1533  142.1923  162.8821 N.ar    1  UNL1       -0.2453
     11 C         139.5552  145.4310  162.4406 C.3     1  UNL1        0.0523
     12 C         140.3105  145.1310  161.1797 C.ar    1  UNL1        0.0652
     13 N         139.9300  145.8105  159.8978 N.ar    1  UNL1       -0.2179
     14 C         140.6853  145.5105  158.6370 C.ar    1  UNL1        0.2199
     15 N         141.8211  144.5309  158.6582 N.ar    1  UNL1       -0.2121
     16 C         142.2016  143.8514  159.9402 C.ar    1  UNL1        0.1045
     17 C         141.4463  144.1514  161.2009 C.ar    1  UNL1        0.0505
     18 N         140.3048  146.1900  157.3551 N.pl3   1  UNL1       -0.2782
     19 C         139.1516  147.1301  157.1640 C.3     1  UNL1        0.0937
     20 C         139.1448  147.5699  155.7299 C.3     1  UNL1        0.0233
     21 C         140.2939  146.9017  155.0347 C.3     1  UNL1        0.0233
     22 C         141.0108  146.0489  156.0391 C.3     1  UNL1        0.0937
     23 C         142.6750  139.4741  168.0100 C.3     1  UNL1        0.0437
     24 C         141.9068  139.7589  169.2665 C.3     1  UNL1        0.0768
     25 N         141.4563  141.1572  169.5695 N.3     1  UNL1       -0.2737
     26 C         140.0340  141.6231  169.6693 C.3     1  UNL1        0.0721
     27 C         140.0476  143.0890  169.9873 C.3     1  UNL1        0.0187
     28 C         141.4785  143.5289  170.0842 C.3     1  UNL1        0.0174
     29 C         142.3490  142.3350  169.8259 C.3     1  UNL1        0.0576
     30 C         143.8489  142.3213  169.8244 C.3     1  UNL1        0.0173
@<TRIPOS>BOND
     1    11    12    1
     2    12    13   ar
     3    13    14   ar
     4    14    18    1
     5    18    19    1
     6    19    20    1
     7    20    21    1
     8    21    22    1
     9    14    15   ar
    10    15    16   ar
    11    16    17   ar
    12    17     1    1
    13     1     2   ar
    14     2     3   ar
    15     3     4   ar
    16     4     5   ar
    17     5     6   ar
    18     6    23    1
    19    23    24    1
    20    24    25    1
    21    25    26    1
    22    26    27    1
    23    27    28    1
    24    28    29    1
    25    29    30    1
    26     6     7   ar
    27     7     8   ar
    28     8     9   ar
    29     9    10   ar
    30    17    12   ar
    31    10     1   ar
    32    22    18    1
    33     9     4   ar
    34    29    25    1
@<TRIPOS>MOLECULE
*****
 30 34 0 0 0
SMALL
GASTEIGER

@<TRIPOS>ATOM
      1 C         139.2281  140.7054  162.4507 C.ar    1  UNL1        0.0839
      2 C         138.2701  140.5707  163.5970 C.ar    1  UNL1        0.0192
      3 C         138.7840  140.2578  164.9710 C.ar    1  UNL1        0.0030
      4 C         140.2559  140.0795  165.1987 C.ar    1  UNL1        0.0174
      5 C         140.7697  139.7666  166.5728 C.ar    1  UNL1       -0.0027
      6 C         142.2416  139.5883  166.8005 C.ar    1  UNL1       -0.0207
      7 C         143.1996  139.7230  165.6541 C.ar    1  UNL1       -0.0027
      8 C         142.6857  140.0359  164.2801 C.ar    1  UNL1        0.0188
      9 C         141.2138  140.2142  164.0524 C.ar    1  UNL1        0.0812
     10 N         140.7000  140.5271  162.6784 N.ar    1  UNL1       -0.2453
     11 C         139.2854  143.5275  161.4346 C.3     1  UNL1        0.0523
     12 C         138.7429  142.4293  160.5685 C.ar    1  UNL1        0.0652
     13 N         138.2291  142.7423  159.1945 N.ar    1  UNL1       -0.2179
     14 C         137.6866  141.6442  158.3284 C.ar    1  UNL1        0.2199
     15 N         137.6579  140.2332  158.8365 N.ar    1  UNL1       -0.2121
     16 C         138.1718  139.9202  160.2106 C.ar    1  UNL1        0.1045
     17 C         138.7142  141.0183  161.0766 C.ar    1  UNL1        0.0505
     18 N         137.1727  141.9572  156.9544 N.pl3   1  UNL1       -0.2782
     19 C         137.5020  143.1776  156.1468 C.3     1  UNL1        0.0937
     20 C         136.7722  143.0794  154.8400 C.3     1  UNL1        0.0233
     21 C         135.9919  141.7982  154.8400 C.3     1  UNL1        0.0233
     22 C         136.2395  141.1047  156.1468 C.3     1  UNL1        0.0937
     23 C         142.7555  139.2754  168.1745 C.3     1  UNL1        0.0437
     24 C         141.9073  139.5670  169.3769 C.3     1  UNL1        0.0768
     25 N         141.4287  140.9648  169.6360 N.3     1  UNL1       -0.2737
     26 C         142.2836  142.1967  169.6735 C.3     1  UNL1        0.0721
     27 C         141.3944  143.3694  169.9637 C.3     1  UNL1        0.0187
     28 C         139.9899  142.8621  170.1056 C.3     1  UNL1        0.0174
     29 C         140.0111  141.3760  169.9030 C.3     1  UNL1        0.0576
     30 C         138.8233  140.4617  169.9579 C.3     1  UNL1        0.0173
@<TRIPOS>BOND
     1    11    12    1
     2    12    13   ar
     3    13    14   ar
     4    14    18    1
     5    18    19    1
     6    19    20    1
     7    20    21    1
     8    21    22    1
     9    14    15   ar
    10    15    16   ar
    11    16    17   ar
    12    17     1    1
    13     1     2   ar
    14     2     3   ar
    15     3     4   ar
    16     4     5   ar
    17     5     6   ar
    18     6    23    1
    19    23    24    1
    20    24    25    1
    21    25    26    1
    22    26    27    1
    23    27    28    1
    24    28    29    1
    25    29    30    1
    26     6     7   ar
    27     7     8   ar
    28     8     9   ar
    29     9    10   ar
    30    17    12   ar
    31    10     1   ar
    32    22    18    1
    33     9     4   ar
    34    29    25    1
@<TRIPOS>MOLECULE
*****
 30 34 0 0 0
SMALL
GASTEIGER

@<TRIPOS>ATOM
      1 C         140.1778  138.6182  162.8001 C.ar    1  UNL1        0.0839
      2 C         139.3456  137.5412  163.4307 C.ar    1  UNL1        0.0192
      3 C         138.9152  137.6672  164.8620 C.ar    1  UNL1        0.0030
      4 C         139.3169  138.8703  165.6628 C.ar    1  UNL1        0.0174
      5 C         138.8865  138.9963  167.0943 C.ar    1  UNL1       -0.0027
      6 C         139.2882  140.1993  167.8951 C.ar    1  UNL1       -0.0207
      7 C         140.1204  141.2764  167.2645 C.ar    1  UNL1       -0.0027
      8 C         140.5508  141.1503  165.8332 C.ar    1  UNL1        0.0188
      9 C         140.1491  139.9473  165.0323 C.ar    1  UNL1        0.0812
     10 N         140.5795  139.8212  163.6010 N.ar    1  UNL1       -0.2453
     11 C         143.0509  138.0606  162.1414 C.3     1  UNL1        0.0523
     12 C         142.0448  138.2134  161.0393 C.ar    1  UNL1        0.0652
     13 N         142.4753  138.0874  159.6080 N.ar    1  UNL1       -0.2179
     14 C         141.4691  138.2402  158.5059 C.ar    1  UNL1        0.2199
     15 N         140.0326  138.5190  158.8353 N.ar    1  UNL1       -0.2121
     16 C         139.6021  138.6450  160.2668 C.ar    1  UNL1        0.1045
     17 C         140.6082  138.4922  161.3687 C.ar    1  UNL1        0.0505
     18 N         141.8996  138.1142  157.0746 N.pl3   1  UNL1       -0.2782
     19 C         141.4397  138.9762  155.9364 C.3     1  UNL1        0.0937
     20 C         142.1214  138.4988  154.6885 C.3     1  UNL1        0.0233
     21 C         143.0027  137.3418  155.0555 C.3     1  UNL1        0.0233
     22 C         142.8656  137.1041  156.5301 C.3     1  UNL1        0.0937
     23 C         138.8578  140.3254  169.3265 C.3     1  UNL1        0.0437
     24 C         139.8787  140.2711  170.4242 C.3     1  UNL1        0.0768
     25 N         141.1714  141.0188  170.2838 N.3     1  UNL1       -0.2737
     26 C         141.3742  142.4839  170.5336 C.3     1  UNL1        0.0721
     27 C         142.8164  142.8033  170.2732 C.3     1  UNL1        0.0187
     28 C         143.5050  141.5355  169.8625 C.3     1  UNL1        0.0174
     29 C         142.4883  140.4327  169.8691 C.3     1  UNL1        0.0576
     30 C         142.7438  138.9960  169.5218 C.3     1  UNL1        0.0173
@<TRIPOS>BOND
     1    11    12    1
     2    12    13   ar
     3    13    14   ar
     4    14    18    1
     5    18    19    1
     6    19    20    1
     7    20    21    1
     8    21    22    1
     9    14    15   ar
    10    15    16   ar
    11    16    17   ar
    12    17     1    1
    13     1     2   ar
    14     2     3   ar
    15     3     4   ar
    16     4     5   ar
    17     5     6   ar
    18     6    23    1
    19    23    24    1
    20    24    25    1
    21    25    26    1
    22    26    27    1
    23    27    28    1
    24    28    29    1
    25    29    30    1
    26     6     7   ar
    27     7     8   ar
    28     8     9   ar
    29     9    10   ar
    30    17    12   ar
    31    10     1   ar
    32    22    18    1
    33     9     4   ar
    34    29    25    1
@<TRIPOS>MOLECULE
*****
 30 34 0 0 0
SMALL
GASTEIGER

@<TRIPOS>ATOM
      1 C         143.0517  140.3956  162.2974 C.ar    1  UNL1        0.0839
      2 C         143.8625  139.6212  163.2938 C.ar    1  UNL1        0.0192
      3 C         143.3130  139.3567  164.6642 C.ar    1  UNL1        0.0030
      4 C         141.9529  139.8666  165.0382 C.ar    1  UNL1        0.0174
      5 C         141.4034  139.6021  166.4088 C.ar    1  UNL1       -0.0027
      6 C         140.0433  140.1120  166.7828 C.ar    1  UNL1       -0.0207
      7 C         139.2325  140.8865  165.7863 C.ar    1  UNL1       -0.0027
      8 C         139.7819  141.1510  164.4159 C.ar    1  UNL1        0.0188
      9 C         141.1421  140.6410  164.0418 C.ar    1  UNL1        0.0812
     10 N         141.6915  140.9056  162.6714 N.ar    1  UNL1       -0.2453
     11 C         144.3108  143.0458  161.6720 C.3     1  UNL1        0.0523
     12 C         144.2306  141.9853  160.6142 C.ar    1  UNL1        0.0652
     13 N         144.7800  142.2499  159.2437 N.ar    1  UNL1       -0.2179
     14 C         144.6999  141.1893  158.1859 C.ar    1  UNL1        0.2199
     15 N         144.0703  139.8642  158.4986 N.ar    1  UNL1       -0.2121
     16 C         143.5209  139.5997  159.8691 C.ar    1  UNL1        0.1045
     17 C         143.6011  140.6602  160.9269 C.ar    1  UNL1        0.0505
     18 N         145.2493  141.4539  156.8155 N.pl3   1  UNL1       -0.2782
     19 C         144.7452  140.8599  155.5337 C.3     1  UNL1        0.0937
     20 C         145.5836  141.3978  154.4122 C.3     1  UNL1        0.0233
     21 C         146.6059  142.3243  155.0010 C.3     1  UNL1        0.0233
     22 C         146.3992  142.3590  156.4863 C.3     1  UNL1        0.0937
     23 C         139.4938  139.8475  168.1532 C.3     1  UNL1        0.0437
     24 C         139.6738  140.8631  169.2423 C.3     1  UNL1        0.0768
     25 N         141.0449  141.3746  169.5718 N.3     1  UNL1       -0.2737
     26 C         142.2903  140.5467  169.6883 C.3     1  UNL1        0.0721
     27 C         143.4265  141.4642  170.0310 C.3     1  UNL1        0.0187
     28 C         142.8831  142.8591  170.1264 C.3     1  UNL1        0.0174
     29 C         141.4113  142.8037  169.8425 C.3     1  UNL1        0.0576
     30 C         140.4709  143.9723  169.8315 C.3     1  UNL1        0.0173
@<TRIPOS>BOND
     1    11    12    1
     2    12    13   ar
     3    13    14   ar
     4    14    18    1
     5    18    19    1
     6    19    20    1
     7    20    21    1
     8    21    22    1
     9    14    15   ar
    10    15    16   ar
    11    16    17   ar
    12    17     1    1
    13     1     2   ar
    14     2     3   ar
    15     3     4   ar
    16     4     5   ar
    17     5     6   ar
    18     6    23    1
    19    23    24    1
    20    24    25    1
    21    25    26    1
    22    26    27    1
    23    27    28    1
    24    28    29    1
    25    29    30    1
    26     6     7   ar
    27     7     8   ar
    28     8     9   ar
    29     9    10   ar
    30    17    12   ar
    31    10     1   ar
    32    22    18    1
    33     9     4   ar
    34    29    25    1
@<TRIPOS>MOLECULE
*****
 30 34 0 0 0
SMALL
GASTEIGER

@<TRIPOS>ATOM
      1 C         140.1901  140.7352  162.0931 C.ar    1  UNL1        0.0839
      2 C         141.6898  140.7165  162.0772 C.ar    1  UNL1        0.0192
      3 C         142.4497  140.4341  163.3392 C.ar    1  UNL1        0.0030
      4 C         141.7098  140.1705  164.6172 C.ar    1  UNL1        0.0174
      5 C         142.4698  139.8882  165.8793 C.ar    1  UNL1       -0.0027
      6 C         141.7299  139.6246  167.1572 C.ar    1  UNL1       -0.0207
      7 C         140.2301  139.6434  167.1730 C.ar    1  UNL1       -0.0027
      8 C         139.4702  139.9257  165.9110 C.ar    1  UNL1        0.0188
      9 C         140.2101  140.1893  164.6331 C.ar    1  UNL1        0.0812
     10 N         139.4502  140.4717  163.3710 N.ar    1  UNL1       -0.2453
     11 C         139.3002  138.4698  160.3393 C.3     1  UNL1        0.0523
     12 C         138.9851  139.8849  159.9541 C.ar    1  UNL1        0.0652
     13 N         138.2252  140.1672  158.6921 N.ar    1  UNL1       -0.2179
     14 C         137.9102  141.5823  158.3069 C.ar    1  UNL1        0.2199
     15 N         138.3551  142.7150  159.1838 N.ar    1  UNL1       -0.2121
     16 C         139.1151  142.4327  160.4459 C.ar    1  UNL1        0.1045
     17 C         139.4301  141.0176  160.8310 C.ar    1  UNL1        0.0505
     18 N         137.1502  141.8646  157.0449 N.pl3   1  UNL1       -0.2782
     19 C         137.2790  143.0933  156.1942 C.3     1  UNL1        0.0937
     20 C         136.3365  142.9559  155.0355 C.3     1  UNL1        0.0233
     21 C         135.6251  141.6421  155.1700 C.3     1  UNL1        0.0233
     22 C         136.1281  140.9677  156.4119 C.3     1  UNL1        0.0937
     23 C         142.4898  139.3422  168.4192 C.3     1  UNL1        0.0437
     24 C         141.9341  139.7778  169.7427 C.3     1  UNL1        0.0768
     25 N         141.4391  141.1822  169.9227 N.3     1  UNL1       -0.2737
     26 C         140.0229  141.5887  170.2043 C.3     1  UNL1        0.0721
     27 C         139.9819  143.0845  170.3084 C.3     1  UNL1        0.0187
     28 C         141.3728  143.6025  170.0911 C.3     1  UNL1        0.0174
     29 C         142.2733  142.4268  169.8528 C.3     1  UNL1        0.0576
     30 C         143.7490  142.4856  169.5906 C.3     1  UNL1        0.0173
@<TRIPOS>BOND
     1    11    12    1
     2    12    13   ar
     3    13    14   ar
     4    14    18    1
     5    18    19    1
     6    19    20    1
     7    20    21    1
     8    21    22    1
     9    14    15   ar
    10    15    16   ar
    11    16    17   ar
    12    17     1    1
    13     1     2   ar
    14     2     3   ar
    15     3     4   ar
    16     4     5   ar
    17     5     6   ar
    18     6    23    1
    19    23    24    1
    20    24    25    1
    21    25    26    1
    22    26    27    1
    23    27    28    1
    24    28    29    1
    25    29    30    1
    26     6     7   ar
    27     7     8   ar
    28     8     9   ar
    29     9    10   ar
    30    17    12   ar
    31    10     1   ar
    32    22    18    1
    33     9     4   ar
    34    29    25    1
@<TRIPOS>MOLECULE
*****
 30 34 0 0 0
SMALL
GASTEIGER

@<TRIPOS>ATOM
      1 C         139.9509  138.7454  162.6380 C.ar    1  UNL1        0.0839
      2 C         139.1852  137.6358  163.2956 C.ar    1  UNL1        0.0192
      3 C         138.8541  137.7161  164.7564 C.ar    1  UNL1        0.0030
      4 C         139.2887  138.9061  165.5595 C.ar    1  UNL1        0.0174
      5 C         138.9575  138.9864  167.0204 C.ar    1  UNL1       -0.0027
      6 C         139.3921  140.1764  167.8236 C.ar    1  UNL1       -0.0207
      7 C         140.1578  141.2861  167.1659 C.ar    1  UNL1       -0.0027
      8 C         140.4889  141.2057  165.7052 C.ar    1  UNL1        0.0188
      9 C         140.0543  140.0157  164.9020 C.ar    1  UNL1        0.0812
     10 N         140.3854  139.9354  163.4412 N.ar    1  UNL1       -0.2453
     11 C         137.8965  139.5104  160.5901 C.3     1  UNL1        0.0523
     12 C         139.2548  139.0476  160.1532 C.ar    1  UNL1        0.0652
     13 N         139.5859  138.9673  158.6924 N.ar    1  UNL1       -0.2179
     14 C         140.9443  138.5045  158.2556 C.ar    1  UNL1        0.2199
     15 N         141.9715  138.1220  159.2796 N.ar    1  UNL1       -0.2121
     16 C         141.6403  138.2023  160.7404 C.ar    1  UNL1        0.1045
     17 C         140.2820  138.6651  161.1772 C.ar    1  UNL1        0.0505
     18 N         141.2754  138.4242  156.7948 N.pl3   1  UNL1       -0.2782
     19 C         140.8221  137.3549  155.8455 C.3     1  UNL1        0.0937
     20 C         141.3845  137.6689  154.4908 C.3     1  UNL1        0.0233
     21 C         142.1853  138.9324  154.6029 C.3     1  UNL1        0.0233
     22 C         142.1178  139.3991  156.0269 C.3     1  UNL1        0.0937
     23 C         139.0610  140.2568  169.2843 C.3     1  UNL1        0.0437
     24 C         140.1542  140.1650  170.3073 C.3     1  UNL1        0.0768
     25 N         141.3475  141.0690  170.2129 N.3     1  UNL1       -0.2737
     26 C         142.7732  140.6327  170.0484 C.3     1  UNL1        0.0721
     27 C         143.6315  141.8620  170.0002 C.3     1  UNL1        0.0187
     28 C         142.7361  143.0580  170.1350 C.3     1  UNL1        0.0174
     29 C         141.3246  142.5678  170.2664 C.3     1  UNL1        0.0576
     30 C         140.1044  143.4259  170.4238 C.3     1  UNL1        0.0173
@<TRIPOS>BOND
     1    11    12    1
     2    12    13   ar
     3    13    14   ar
     4    14    18    1
     5    18    19    1
     6    19    20    1
     7    20    21    1
     8    21    22    1
     9    14    15   ar
    10    15    16   ar
    11    16    17   ar
    12    17     1    1
    13     1     2   ar
    14     2     3   ar
    15     3     4   ar
    16     4     5   ar
    17     5     6   ar
    18     6    23    1
    19    23    24    1
    20    24    25    1
    21    25    26    1
    22    26    27    1
    23    27    28    1
    24    28    29    1
    25    29    30    1
    26     6     7   ar
    27     7     8   ar
    28     8     9   ar
    29     9    10   ar
    30    17    12   ar
    31    10     1   ar
    32    22    18    1
    33     9     4   ar
    34    29    25    1
@<TRIPOS>MOLECULE
*****
 30 34 0 0 0
SMALL
GASTEIGER

@<TRIPOS>ATOM
      1 C         139.2632  142.8916  161.7350 C.ar    1  UNL1        0.0839
      2 C         137.8783  142.8707  162.3107 C.ar    1  UNL1        0.0192
      3 C         137.6222  142.1927  163.6240 C.ar    1  UNL1        0.0030
      4 C         138.7510  141.5356  164.3615 C.ar    1  UNL1        0.0174
      5 C         138.4948  140.8575  165.6748 C.ar    1  UNL1       -0.0027
      6 C         139.6236  140.2004  166.4124 C.ar    1  UNL1       -0.0207
      7 C         141.0086  140.2213  165.8366 C.ar    1  UNL1       -0.0027
      8 C         141.2647  140.8993  164.5233 C.ar    1  UNL1        0.0188
      9 C         140.1359  141.5565  163.7858 C.ar    1  UNL1        0.0812
     10 N         140.3920  142.2345  162.4726 N.ar    1  UNL1       -0.2453
     11 C         140.3775  145.6764  161.6769 C.3     1  UNL1        0.0523
     12 C         140.0766  144.9621  160.3927 C.ar    1  UNL1        0.0652
     13 N         140.3327  145.6401  159.0795 N.ar    1  UNL1       -0.2179
     14 C         140.0318  144.9258  157.7952 C.ar    1  UNL1        0.2199
     15 N         139.4746  143.5334  157.8243 N.ar    1  UNL1       -0.2121
     16 C         139.2184  142.8553  159.1376 C.ar    1  UNL1        0.1045
     17 C         139.5194  143.5697  160.4217 C.ar    1  UNL1        0.0505
     18 N         140.2880  145.6038  156.4820 N.pl3   1  UNL1       -0.2782
     19 C         139.6354  146.8651  155.9988 C.3     1  UNL1        0.0937
     20 C         140.1858  147.1805  154.6396 C.3     1  UNL1        0.0233
     21 C         141.1786  146.1140  154.2827 C.3     1  UNL1        0.0233
     22 C         141.2417  145.1397  155.4214 C.3     1  UNL1        0.0937
     23 C         139.3675  139.5224  167.7256 C.3     1  UNL1        0.0437
     24 C         139.4010  140.3156  168.9983 C.3     1  UNL1        0.0768
     25 N         140.5862  141.1796  169.3126 N.3     1  UNL1       -0.2737
     26 C         140.5641  142.6649  169.5208 C.3     1  UNL1        0.0721
     27 C         141.9658  143.1133  169.8107 C.3     1  UNL1        0.0187
     28 C         142.8543  141.9050  169.7817 C.3     1  UNL1        0.0174
     29 C         142.0016  140.7100  169.4738 C.3     1  UNL1        0.0576
     30 C         142.4804  139.2939  169.3491 C.3     1  UNL1        0.0173
@<TRIPOS>BOND
     1    11    12    1
     2    12    13   ar
     3    13    14   ar
     4    14    18    1
     5    18    19    1
     6    19    20    1
     7    20    21    1
     8    21    22    1
     9    14    15   ar
    10    15    16   ar
    11    16    17   ar
    12    17     1    1
    13     1     2   ar
    14     2     3   ar
    15     3     4   ar
    16     4     5   ar
    17     5     6   ar
    18     6    23    1
    19    23    24    1
    20    24    25    1
    21    25    26    1
    22    26    27    1
    23    27    28    1
    24    28    29    1
    25    29    30    1
    26     6     7   ar
    27     7     8   ar
    28     8     9   ar
    29     9    10   ar
    30    17    12   ar
    31    10     1   ar
    32    22    18    1
    33     9     4   ar
    34    29    25    1
@<TRIPOS>MOLECULE
*****
 30 34 0 0 0
SMALL
GASTEIGER

@<TRIPOS>ATOM
      1 C         141.3566  139.0269  162.2524 C.ar    1  UNL1        0.0839
      2 C         142.3340  139.9301  162.9444 C.ar    1  UNL1        0.0192
      3 C         142.1007  140.3362  164.3694 C.ar    1  UNL1        0.0030
      4 C         140.8900  139.8391  165.1024 C.ar    1  UNL1        0.0174
      5 C         140.6568  140.2452  166.5274 C.ar    1  UNL1       -0.0027
      6 C         139.4461  139.7482  167.2604 C.ar    1  UNL1       -0.0207
      7 C         138.4687  138.8450  166.5682 C.ar    1  UNL1       -0.0027
      8 C         138.7019  138.4389  165.1432 C.ar    1  UNL1        0.0188
      9 C         139.9126  138.9360  164.4103 C.ar    1  UNL1        0.0812
     10 N         140.1459  138.5299  162.9853 N.ar    1  UNL1       -0.2453
     11 C         139.4451  139.9007  160.1116 C.3     1  UNL1        0.0523
     12 C         140.6341  139.0577  159.7569 C.ar    1  UNL1        0.0652
     13 N         140.8673  138.6516  158.3319 N.ar    1  UNL1       -0.2179
     14 C         142.0563  137.8086  157.9773 C.ar    1  UNL1        0.2199
     15 N         143.0120  137.3717  159.0476 N.ar    1  UNL1       -0.2121
     16 C         142.7788  137.7778  160.4727 C.ar    1  UNL1        0.1045
     17 C         141.5898  138.6208  160.8273 C.ar    1  UNL1        0.0505
     18 N         142.2895  137.4025  156.5523 N.pl3   1  UNL1       -0.2782
     19 C         142.4698  135.9994  156.0535 C.3     1  UNL1        0.0937
     20 C         142.6751  136.0579  154.5688 C.3     1  UNL1        0.0233
     21 C         142.6216  137.4973  154.1499 C.3     1  UNL1        0.0233
     22 C         142.3833  138.3283  155.3758 C.3     1  UNL1        0.0937
     23 C         139.2128  140.1542  168.6853 C.3     1  UNL1        0.0437
     24 C         140.3053  139.9911  169.7002 C.3     1  UNL1        0.0768
     25 N         141.3827  141.0284  169.8156 N.3     1  UNL1       -0.2737
     26 C         142.8448  140.8133  169.5587 C.3     1  UNL1        0.0721
     27 C         143.5529  142.1148  169.7925 C.3     1  UNL1        0.0187
     28 C         142.5284  143.1343  170.1939 C.3     1  UNL1        0.0174
     29 C         141.1871  142.4628  170.2082 C.3     1  UNL1        0.0576
     30 C         139.8799  143.1119  170.5542 C.3     1  UNL1        0.0173
@<TRIPOS>BOND
     1    11    12    1
     2    12    13   ar
     3    13    14   ar
     4    14    18    1
     5    18    19    1
     6    19    20    1
     7    20    21    1
     8    21    22    1
     9    14    15   ar
    10    15    16   ar
    11    16    17   ar
    12    17     1    1
    13     1     2   ar
    14     2     3   ar
    15     3     4   ar
    16     4     5   ar
    17     5     6   ar
    18     6    23    1
    19    23    24    1
    20    24    25    1
    21    25    26    1
    22    26    27    1
    23    27    28    1
    24    28    29    1
    25    29    30    1
    26     6     7   ar
    27     7     8   ar
    28     8     9   ar
    29     9    10   ar
    30    17    12   ar
    31    10     1   ar
    32    22    18    1
    33     9     4   ar
    34    29    25    1
@<TRIPOS>MOLECULE
*****
 30 34 0 0 0
SMALL
GASTEIGER

@<TRIPOS>ATOM
      1 C         142.6554  141.1544  161.5011 C.ar    1  UNL1        0.0839
      2 C         141.3160  141.8227  161.5991 C.ar    1  UNL1        0.0192
      3 C         140.5238  141.7318  162.8695 C.ar    1  UNL1        0.0030
      4 C         141.0708  140.9727  164.0419 C.ar    1  UNL1        0.0174
      5 C         140.2784  140.8818  165.3124 C.ar    1  UNL1       -0.0027
      6 C         140.8255  140.1227  166.4848 C.ar    1  UNL1       -0.0207
      7 C         142.1649  139.4545  166.3867 C.ar    1  UNL1       -0.0027
      8 C         142.9572  139.5454  165.1163 C.ar    1  UNL1        0.0188
      9 C         142.4101  140.3045  163.9439 C.ar    1  UNL1        0.0812
     10 N         143.2024  140.3953  162.6735 N.ar    1  UNL1       -0.2453
     11 C         142.7310  138.8262  159.6108 C.3     1  UNL1        0.0523
     12 C         143.4855  140.0811  159.2855 C.ar    1  UNL1        0.0652
     13 N         144.2778  140.1719  158.0151 N.ar    1  UNL1       -0.2179
     14 C         145.0324  141.4269  157.6898 C.ar    1  UNL1        0.2199
     15 N         144.9946  142.5911  158.6349 N.ar    1  UNL1       -0.2121
     16 C         144.2022  142.5002  159.9054 C.ar    1  UNL1        0.1045
     17 C         143.4477  141.2453  160.2306 C.ar    1  UNL1        0.0505
     18 N         145.8247  141.5177  156.4194 N.pl3   1  UNL1       -0.2782
     19 C         145.5478  140.7649  155.1518 C.3     1  UNL1        0.0937
     20 C         146.5849  141.1592  154.1425 C.3     1  UNL1        0.0233
     21 C         147.5029  142.1558  154.7863 C.3     1  UNL1        0.0233
     22 C         147.0330  142.3773  156.1934 C.3     1  UNL1        0.0937
     23 C         140.0332  140.0319  167.7552 C.3     1  UNL1        0.0437
     24 C         140.7395  139.9798  169.0775 C.3     1  UNL1        0.0768
     25 N         141.6532  141.0977  169.4842 N.3     1  UNL1       -0.2737
     26 C         143.1471  141.1092  169.3484 C.3     1  UNL1        0.0721
     27 C         143.6506  142.4190  169.8784 C.3     1  UNL1        0.0187
     28 C         142.4680  143.2170  170.3418 C.3     1  UNL1        0.0174
     29 C         141.2336  142.4004  170.0982 C.3     1  UNL1        0.0576
     30 C         139.8266  142.8139  170.4132 C.3     1  UNL1        0.0173
@<TRIPOS>BOND
     1    11    12    1
     2    12    13   ar
     3    13    14   ar
     4    14    18    1
     5    18    19    1
     6    19    20    1
     7    20    21    1
     8    21    22    1
     9    14    15   ar
    10    15    16   ar
    11    16    17   ar
    12    17     1    1
    13     1     2   ar
    14     2     3   ar
    15     3     4   ar
    16     4     5   ar
    17     5     6   ar
    18     6    23    1
    19    23    24    1
    20    24    25    1
    21    25    26    1
    22    26    27    1
    23    27    28    1
    24    28    29    1
    25    29    30    1
    26     6     7   ar
    27     7     8   ar
    28     8     9   ar
    29     9    10   ar
    30    17    12   ar
    31    10     1   ar
    32    22    18    1
    33     9     4   ar
    34    29    25    1
