@<TRIPOS>MOLECULE
*****
 39 43 0 0 0
SMALL
GASTEIGER

@<TRIPOS>ATOM
      1 C         141.0424  143.8468  160.7481 C.ar    1  UNL1        0.0843
      2 N         141.6947  145.1318  160.3317 N.ar    1  UNL1       -0.2437
      3 C         141.4156  145.7095  158.9758 C.ar    1  UNL1        0.0988
      4 C         140.4842  145.0022  158.0365 C.ar    1  UNL1        0.0207
      5 C         139.8320  143.7173  158.4529 C.ar    1  UNL1        0.0043
      6 C         138.9007  143.0101  157.5135 C.ar    1  UNL1        0.0203
      7 C         138.2484  141.7251  157.9300 C.ar    1  UNL1        0.1252
      8 C         138.5275  141.1473  159.2859 C.ar    1  UNL1        0.0202
      9 C         139.4589  141.8546  160.2252 C.ar    1  UNL1        0.0029
     10 C         140.1111  143.1396  159.8087 C.ar    1  UNL1        0.0179
     11 C         140.4126  143.5839  163.2550 C.ar    1  UNL1        0.1402
     12 C         140.6916  143.0062  164.6108 C.ar    1  UNL1        0.0392
     13 C         141.8796  142.1136  164.8157 C.ar    1  UNL1        0.0305
     14 C         142.7886  141.7987  163.6648 C.ar    1  UNL1        0.1403
     15 F         143.9765  140.9062  163.8697 F       1  UNL1       -0.2042
     16 C         142.5095  142.3765  162.3089 C.ar    1  UNL1        0.0342
     17 C         141.3215  143.2690  162.1040 C.ar    1  UNL1        0.0538
     18 C         142.1587  141.5358  166.1716 C.ar    1  UNL1        0.0022
     19 C         142.1215  140.0503  166.3759 C.ar    1  UNL1        0.0001
     20 C         142.4006  139.4725  167.7318 C.ar    1  UNL1       -0.0001
     21 C         142.7167  140.3803  168.8833 C.ar    1  UNL1        0.0039
     22 C         142.7538  141.8659  168.6789 C.ar    1  UNL1        0.0714
     23 C         142.4748  142.4436  167.3231 C.ar    1  UNL1        0.0039
     24 C         143.0700  142.7737  169.8304 C.3     1  UNL1        0.4186
     25 F         143.3861  143.6815  170.9819 F       1  UNL1       -0.1659
     26 F         141.6842  143.3437  169.7615 F       1  UNL1       -0.1659
     27 F         144.4558  142.2037  169.8993 F       1  UNL1       -0.1659
     28 C         137.8439  143.8913  163.0154 C.3     1  UNL1        0.2525
     29 O         139.2245  144.4765  163.0500 O.3     1  UNL1       -0.4714
     30 S         137.3171  141.0179  156.9906 S.O2    1  UNL1        0.0748
     31 O         136.6463  142.3217  156.6740 O.2     1  UNL1       -0.1499
     32 O         137.9879  139.7141  157.3071 O.2     1  UNL1       -0.1499
     33 N         136.3858  140.3107  156.0512 N.pl3   1  UNL1       -0.1962
     34 H         136.7471  139.8041  155.2882 H       1  UNL1        0.1754
     35 C         134.9038  140.3752  156.2743 C.ar    1  UNL1        0.1893
     36 C         133.9096  141.0750  155.3958 C.ar    1  UNL1        0.0823
     37 C         132.5473  140.8835  155.9936 C.ar    1  UNL1        0.2152
     38 O         132.6995  140.0653  157.2416 O.2     1  UNL1       -0.3489
     39 N         134.1559  139.7511  157.4150 N.ar    1  UNL1       -0.0605
@<TRIPOS>BOND
     1    28    29    1
     2    29    11    1
     3    11    12   ar
     4    12    13   ar
     5    13    18    1
     6    18    19   ar
     7    19    20   ar
     8    20    21   ar
     9    21    22   ar
    10    22    24    1
    11    24    25    1
    12    24    26    1
    13    24    27    1
    14    22    23   ar
    15    13    14   ar
    16    14    15    1
    17    14    16   ar
    18    16    17   ar
    19    17     1    1
    20     1     2   ar
    21     2     3   ar
    22     3     4   ar
    23     4     5   ar
    24     5     6   ar
    25     6     7   ar
    26     7    30    1
    27    30    31    2
    28    30    32    2
    29    30    33    1
    30    33    35    1
    31    35    36   ar
    32    36    37   ar
    33    37    38   ar
    34    38    39   ar
    35     7     8   ar
    36     8     9   ar
    37     9    10   ar
    38    17    11   ar
    39    10     1   ar
    40    23    18   ar
    41    10     5   ar
    42    39    35   ar
    43    33    34    1
@<TRIPOS>MOLECULE
*****
 39 43 0 0 0
SMALL
GASTEIGER

@<TRIPOS>ATOM
      1 C         140.8947  144.1073  160.6321 C.ar    1  UNL1        0.0843
      2 N         141.6696  145.2927  160.1377 N.ar    1  UNL1       -0.2437
      3 C         141.5214  145.7453  158.7154 C.ar    1  UNL1        0.0988
      4 C         140.5984  145.0127  157.7874 C.ar    1  UNL1        0.0207
      5 C         139.8235  143.8273  158.2818 C.ar    1  UNL1        0.0043
      6 C         138.9004  143.0946  157.3538 C.ar    1  UNL1        0.0203
      7 C         138.1255  141.9093  157.8482 C.ar    1  UNL1        0.1252
      8 C         138.2737  141.4565  159.2706 C.ar    1  UNL1        0.0202
      9 C         139.1967  142.1892  160.1986 C.ar    1  UNL1        0.0029
     10 C         139.9717  143.3746  159.7041 C.ar    1  UNL1        0.0179
     11 C         142.0630  142.6131  162.4077 C.ar    1  UNL1        0.1402
     12 C         142.2112  142.1604  163.8300 C.ar    1  UNL1        0.0392
     13 C         141.3392  142.7491  164.8992 C.ar    1  UNL1        0.0305
     14 C         140.3191  143.7905  164.5460 C.ar    1  UNL1        0.1403
     15 F         139.4471  144.3792  165.6152 F       1  UNL1       -0.2042
     16 C         140.1709  144.2433  163.1236 C.ar    1  UNL1        0.0342
     17 C         141.0429  143.6546  162.0545 C.ar    1  UNL1        0.0538
     18 C         141.4874  142.2963  166.3215 C.ar    1  UNL1        0.0022
     19 C         142.8020  142.4553  167.0261 C.ar    1  UNL1        0.0001
     20 C         142.9503  142.0025  168.4484 C.ar    1  UNL1       -0.0001
     21 C         141.7838  141.3908  169.1662 C.ar    1  UNL1        0.0039
     22 C         140.4691  141.2319  168.4616 C.ar    1  UNL1        0.0714
     23 C         140.3209  141.6847  167.0393 C.ar    1  UNL1        0.0039
     24 C         139.3026  140.6202  169.1794 C.3     1  UNL1        0.4186
     25 F         138.1362  140.0085  169.8972 F       1  UNL1       -0.1659
     26 F         139.1937  139.5736  168.1105 F       1  UNL1       -0.1659
     27 F         139.4115  141.6669  170.2483 F       1  UNL1       -0.1659
     28 C         144.3566  142.4809  161.1943 C.3     1  UNL1        0.2525
     29 O         142.9350  142.0244  161.3385 O.3     1  UNL1       -0.4714
     30 S         137.2025  141.1766  156.9202 S.O2    1  UNL1        0.0748
     31 O         137.7314  139.8678  157.4274 O.2     1  UNL1       -0.1499
     32 O         136.6736  142.4854  156.4129 O.2     1  UNL1       -0.1499
     33 N         136.2794  140.4439  155.9922 N.pl3   1  UNL1       -0.1962
     34 H         136.6414  139.9789  155.2036 H       1  UNL1        0.1754
     35 C         134.8047  140.4198  156.2658 C.ar    1  UNL1        0.1893
     36 C         133.7368  141.0146  155.3964 C.ar    1  UNL1        0.0823
     37 C         132.4112  140.7590  156.0502 C.ar    1  UNL1        0.2152
     38 O         132.6598  140.0063  157.3237 O.2     1  UNL1       -0.3489
     39 N         134.1391  139.7967  157.4569 N.ar    1  UNL1       -0.0605
@<TRIPOS>BOND
     1    28    29    1
     2    29    11    1
     3    11    12   ar
     4    12    13   ar
     5    13    18    1
     6    18    19   ar
     7    19    20   ar
     8    20    21   ar
     9    21    22   ar
    10    22    24    1
    11    24    25    1
    12    24    26    1
    13    24    27    1
    14    22    23   ar
    15    13    14   ar
    16    14    15    1
    17    14    16   ar
    18    16    17   ar
    19    17     1    1
    20     1     2   ar
    21     2     3   ar
    22     3     4   ar
    23     4     5   ar
    24     5     6   ar
    25     6     7   ar
    26     7    30    1
    27    30    31    2
    28    30    32    2
    29    30    33    1
    30    33    35    1
    31    35    36   ar
    32    36    37   ar
    33    37    38   ar
    34    38    39   ar
    35     7     8   ar
    36     8     9   ar
    37     9    10   ar
    38    17    11   ar
    39    10     1   ar
    40    23    18   ar
    41    10     5   ar
    42    39    35   ar
    43    33    34    1
@<TRIPOS>MOLECULE
*****
 39 43 0 0 0
SMALL
GASTEIGER

@<TRIPOS>ATOM
      1 C         141.0641  143.9088  160.5915 C.ar    1  UNL1        0.0843
      2 N         141.8737  145.0660  160.0861 N.ar    1  UNL1       -0.2437
      3 C         141.7410  145.5076  158.6588 C.ar    1  UNL1        0.0988
      4 C         140.7988  144.7919  157.7368 C.ar    1  UNL1        0.0207
      5 C         139.9892  143.6347  158.2422 C.ar    1  UNL1        0.0043
      6 C         139.0470  142.9191  157.3202 C.ar    1  UNL1        0.0203
      7 C         138.2374  141.7618  157.8256 C.ar    1  UNL1        0.1252
      8 C         138.3701  141.3202  159.2530 C.ar    1  UNL1        0.0202
      9 C         139.3123  142.0359  160.1750 C.ar    1  UNL1        0.0029
     10 C         140.1219  143.1932  159.6695 C.ar    1  UNL1        0.0179
     11 C         140.2007  143.9270  163.0419 C.ar    1  UNL1        0.1402
     12 C         140.3333  143.4855  164.4692 C.ar    1  UNL1        0.0392
     13 C         141.4620  142.5841  164.8737 C.ar    1  UNL1        0.0305
     14 C         142.4581  142.1243  163.8508 C.ar    1  UNL1        0.1403
     15 F         143.5868  141.2229  164.2552 F       1  UNL1       -0.2042
     16 C         142.3255  142.5659  162.4233 C.ar    1  UNL1        0.0342
     17 C         141.1968  143.4672  162.0189 C.ar    1  UNL1        0.0538
     18 C         141.5946  142.1425  166.3011 C.ar    1  UNL1        0.0022
     19 C         142.9087  142.2831  167.0106 C.ar    1  UNL1        0.0001
     20 C         143.0413  141.8416  168.4380 C.ar    1  UNL1       -0.0001
     21 C         141.8599  141.2594  169.1559 C.ar    1  UNL1        0.0039
     22 C         140.5458  141.1188  168.4463 C.ar    1  UNL1        0.0714
     23 C         140.4132  141.5603  167.0189 C.ar    1  UNL1        0.0039
     24 C         139.3644  140.5366  169.1641 C.3     1  UNL1        0.4186
     25 F         138.1829  139.9545  169.8819 F       1  UNL1       -0.1659
     26 F         139.2362  139.4860  168.1012 F       1  UNL1       -0.1659
     27 F         139.4925  141.5872  170.2270 F       1  UNL1       -0.1659
     28 C         137.6664  144.4993  163.0450 C.3     1  UNL1        0.2525
     29 O         139.0720  144.8284  162.6374 O.3     1  UNL1       -0.4714
     30 S         137.2952  141.0462  156.9036 S.O2    1  UNL1        0.0748
     31 O         137.9368  139.7388  157.2627 O.2     1  UNL1       -0.1499
     32 O         136.6536  142.3536  156.5445 O.2     1  UNL1       -0.1499
     33 N         136.3530  140.3305  155.9816 N.pl3   1  UNL1       -0.1962
     34 H         136.7041  139.8330  155.2080 H       1  UNL1        0.1754
     35 C         134.8757  140.3729  156.2383 C.ar    1  UNL1        0.1893
     36 C         133.8487  141.0383  155.3708 C.ar    1  UNL1        0.0823
     37 C         132.5044  140.8339  156.0039 C.ar    1  UNL1        0.2152
     38 O         132.7004  140.0421  157.2628 O.2     1  UNL1       -0.3489
     39 N         134.1660  139.7572  157.4077 N.ar    1  UNL1       -0.0605
@<TRIPOS>BOND
     1    28    29    1
     2    29    11    1
     3    11    12   ar
     4    12    13   ar
     5    13    18    1
     6    18    19   ar
     7    19    20   ar
     8    20    21   ar
     9    21    22   ar
    10    22    24    1
    11    24    25    1
    12    24    26    1
    13    24    27    1
    14    22    23   ar
    15    13    14   ar
    16    14    15    1
    17    14    16   ar
    18    16    17   ar
    19    17     1    1
    20     1     2   ar
    21     2     3   ar
    22     3     4   ar
    23     4     5   ar
    24     5     6   ar
    25     6     7   ar
    26     7    30    1
    27    30    31    2
    28    30    32    2
    29    30    33    1
    30    33    35    1
    31    35    36   ar
    32    36    37   ar
    33    37    38   ar
    34    38    39   ar
    35     7     8   ar
    36     8     9   ar
    37     9    10   ar
    38    17    11   ar
    39    10     1   ar
    40    23    18   ar
    41    10     5   ar
    42    39    35   ar
    43    33    34    1
@<TRIPOS>MOLECULE
*****
 39 43 0 0 0
SMALL
GASTEIGER

@<TRIPOS>ATOM
      1 C         143.7033  141.3185  160.1905 C.ar    1  UNL1        0.0843
      2 N         144.1523  142.6512  159.6686 N.ar    1  UNL1       -0.2437
      3 C         144.3273  142.8586  158.1934 C.ar    1  UNL1        0.0988
      4 C         144.0532  141.7334  157.2401 C.ar    1  UNL1        0.0207
      5 C         143.6042  140.4008  157.7619 C.ar    1  UNL1        0.0043
      6 C         143.3301  139.2756  156.8086 C.ar    1  UNL1        0.0203
      7 C         142.8811  137.9430  157.3305 C.ar    1  UNL1        0.1252
      8 C         142.7061  137.7355  158.8058 C.ar    1  UNL1        0.0202
      9 C         142.9802  138.8607  159.7591 C.ar    1  UNL1        0.0029
     10 C         143.4292  140.1934  159.2372 C.ar    1  UNL1        0.0179
     11 C         142.2558  141.5353  162.3371 C.ar    1  UNL1        0.1402
     12 C         142.0809  141.3278  163.8123 C.ar    1  UNL1        0.0392
     13 C         143.1784  140.6960  164.6163 C.ar    1  UNL1        0.0305
     14 C         144.4510  140.2718  163.9450 C.ar    1  UNL1        0.1403
     15 F         145.5485  139.6400  164.7488 F       1  UNL1       -0.2042
     16 C         144.6259  140.4793  162.4697 C.ar    1  UNL1        0.0342
     17 C         143.5284  141.1110  161.6658 C.ar    1  UNL1        0.0538
     18 C         143.0034  140.4885  166.0915 C.ar    1  UNL1        0.0022
     19 C         142.9305  139.0983  166.6498 C.ar    1  UNL1        0.0001
     20 C         142.7555  138.8907  168.1251 C.ar    1  UNL1       -0.0001
     21 C         142.6535  140.0735  169.0420 C.ar    1  UNL1        0.0039
     22 C         142.7264  141.4638  168.4836 C.ar    1  UNL1        0.0714
     23 C         142.9014  141.6713  167.0083 C.ar    1  UNL1        0.0039
     24 C         142.6243  142.6466  169.4004 C.3     1  UNL1        0.4186
     25 F         142.5223  143.8294  170.3173 F       1  UNL1       -0.1659
     26 F         144.0911  142.5435  169.6968 F       1  UNL1       -0.1659
     27 F         141.1575  142.7498  169.1040 F       1  UNL1       -0.1659
     28 C         139.7331  142.0476  161.9856 C.3     1  UNL1        0.2525
     29 O         141.1583  142.1671  161.5332 O.3     1  UNL1       -0.4714
     30 S         142.6070  136.8178  156.3772 S.O2    1  UNL1        0.0748
     31 O         141.1549  136.8546  156.7512 O.2     1  UNL1       -0.1499
     32 O         144.0592  136.7810  156.0031 O.2     1  UNL1       -0.1499
     33 N         142.3329  135.6926  155.4238 N.pl3   1  UNL1       -0.1962
     34 H         142.1252  135.8857  154.4811 H       1  UNL1        0.1754
     35 C         142.3754  134.2731  155.9070 C.ar    1  UNL1        0.1893
     36 C         141.9199  133.0669  155.1405 C.ar    1  UNL1        0.0823
     37 C         142.1438  131.8590  156.0012 C.ar    1  UNL1        0.2152
     38 O         142.7377  132.3187  157.2997 O.2     1  UNL1       -0.3489
     39 N         142.8808  133.8107  157.2414 N.ar    1  UNL1       -0.0605
@<TRIPOS>BOND
     1    28    29    1
     2    29    11    1
     3    11    12   ar
     4    12    13   ar
     5    13    18    1
     6    18    19   ar
     7    19    20   ar
     8    20    21   ar
     9    21    22   ar
    10    22    24    1
    11    24    25    1
    12    24    26    1
    13    24    27    1
    14    22    23   ar
    15    13    14   ar
    16    14    15    1
    17    14    16   ar
    18    16    17   ar
    19    17     1    1
    20     1     2   ar
    21     2     3   ar
    22     3     4   ar
    23     4     5   ar
    24     5     6   ar
    25     6     7   ar
    26     7    30    1
    27    30    31    2
    28    30    32    2
    29    30    33    1
    30    33    35    1
    31    35    36   ar
    32    36    37   ar
    33    37    38   ar
    34    38    39   ar
    35     7     8   ar
    36     8     9   ar
    37     9    10   ar
    38    17    11   ar
    39    10     1   ar
    40    23    18   ar
    41    10     5   ar
    42    39    35   ar
    43    33    34    1
@<TRIPOS>MOLECULE
*****
 39 43 0 0 0
SMALL
GASTEIGER

@<TRIPOS>ATOM
      1 C         139.9086  141.7924  161.1196 C.ar    1  UNL1        0.0843
      2 N         138.7987  142.6347  160.5642 N.ar    1  UNL1       -0.2437
      3 C         138.3933  142.4887  159.1274 C.ar    1  UNL1        0.0988
      4 C         139.0978  141.5004  158.2461 C.ar    1  UNL1        0.0207
      5 C         140.2077  140.6580  158.8015 C.ar    1  UNL1        0.0043
      6 C         140.9122  139.6696  157.9201 C.ar    1  UNL1        0.0203
      7 C         142.0221  138.8272  158.4755 C.ar    1  UNL1        0.1252
      8 C         142.4275  138.9732  159.9123 C.ar    1  UNL1        0.0202
      9 C         141.7230  139.9616  160.7937 C.ar    1  UNL1        0.0029
     10 C         140.6131  140.8040  160.2382 C.ar    1  UNL1        0.0179
     11 C         141.4142  142.8860  162.9326 C.ar    1  UNL1        0.1402
     12 C         141.8196  143.0321  164.3694 C.ar    1  UNL1        0.0392
     13 C         141.1249  142.2303  165.4299 C.ar    1  UNL1        0.0305
     14 C         140.0248  141.2826  165.0537 C.ar    1  UNL1        0.1403
     15 F         139.3301  140.4810  166.1142 F       1  UNL1       -0.2042
     16 C         139.6193  141.1367  163.6169 C.ar    1  UNL1        0.0342
     17 C         140.3140  141.9384  162.5564 C.ar    1  UNL1        0.0538
     18 C         141.5304  142.3763  166.8667 C.ar    1  UNL1        0.0022
     19 C         142.9530  142.1298  167.2732 C.ar    1  UNL1        0.0001
     20 C         143.3585  142.2758  168.7100 C.ar    1  UNL1       -0.0001
     21 C         142.3414  142.6683  169.7402 C.ar    1  UNL1        0.0039
     22 C         140.9187  142.9149  169.3336 C.ar    1  UNL1        0.0714
     23 C         140.5132  142.7689  167.8968 C.ar    1  UNL1        0.0039
     24 C         139.9015  143.3075  170.3638 C.3     1  UNL1        0.4186
     25 F         138.8844  143.7000  171.3940 F       1  UNL1       -0.1659
     26 F         140.3819  144.7269  170.2972 F       1  UNL1       -0.1659
     27 F         139.4211  141.8880  170.4303 F       1  UNL1       -0.1659
     28 C         143.5950  143.5775  161.7015 C.3     1  UNL1        0.2525
     29 O         142.1089  143.6878  161.8721 O.3     1  UNL1       -0.4714
     30 S         142.7266  137.8389  157.5941 S.O2    1  UNL1        0.0748
     31 O         143.1758  137.0781  158.8063 O.2     1  UNL1       -0.1499
     32 O         142.2774  138.5997  156.3819 O.2     1  UNL1       -0.1499
     33 N         143.4311  136.8505  156.7128 N.pl3   1  UNL1       -0.1962
     34 H         144.3114  137.0712  156.3312 H       1  UNL1        0.1754
     35 C         142.7943  135.5259  156.4128 C.ar    1  UNL1        0.1893
     36 C         141.7750  135.2592  155.3451 C.ar    1  UNL1        0.0823
     37 C         141.4158  133.8039  155.4003 C.ar    1  UNL1        0.2152
     38 O         142.2131  133.1711  156.5021 O.2     1  UNL1       -0.3489
     39 N         143.0650  134.2353  157.1278 N.ar    1  UNL1       -0.0605
@<TRIPOS>BOND
     1    28    29    1
     2    29    11    1
     3    11    12   ar
     4    12    13   ar
     5    13    18    1
     6    18    19   ar
     7    19    20   ar
     8    20    21   ar
     9    21    22   ar
    10    22    24    1
    11    24    25    1
    12    24    26    1
    13    24    27    1
    14    22    23   ar
    15    13    14   ar
    16    14    15    1
    17    14    16   ar
    18    16    17   ar
    19    17     1    1
    20     1     2   ar
    21     2     3   ar
    22     3     4   ar
    23     4     5   ar
    24     5     6   ar
    25     6     7   ar
    26     7    30    1
    27    30    31    2
    28    30    32    2
    29    30    33    1
    30    33    35    1
    31    35    36   ar
    32    36    37   ar
    33    37    38   ar
    34    38    39   ar
    35     7     8   ar
    36     8     9   ar
    37     9    10   ar
    38    17    11   ar
    39    10     1   ar
    40    23    18   ar
    41    10     5   ar
    42    39    35   ar
    43    33    34    1
@<TRIPOS>MOLECULE
*****
 39 43 0 0 0
SMALL
GASTEIGER

@<TRIPOS>ATOM
      1 C         142.6050  139.5175  161.6767 C.ar    1  UNL1        0.0843
      2 N         142.7782  138.1382  161.1133 N.ar    1  UNL1       -0.2437
      3 C         142.9310  137.9462  159.6335 C.ar    1  UNL1        0.0988
      4 C         142.9108  139.1336  158.7172 C.ar    1  UNL1        0.0207
      5 C         142.7376  140.5129  159.2806 C.ar    1  UNL1        0.0043
      6 C         142.7173  141.7003  158.3642 C.ar    1  UNL1        0.0203
      7 C         142.5441  143.0796  158.9276 C.ar    1  UNL1        0.1252
      8 C         142.3912  143.2716  160.4074 C.ar    1  UNL1        0.0202
      9 C         142.4115  142.0842  161.3238 C.ar    1  UNL1        0.0029
     10 C         142.5847  140.7048  160.7603 C.ar    1  UNL1        0.0179
     11 C         143.6394  140.0912  163.9899 C.ar    1  UNL1        0.1402
     12 C         143.4866  140.2832  165.4697 C.ar    1  UNL1        0.0392
     13 C         142.1463  140.0935  166.1161 C.ar    1  UNL1        0.0305
     14 C         140.9590  139.7118  165.2827 C.ar    1  UNL1        0.1403
     15 F         139.6188  139.5221  165.9291 F       1  UNL1       -0.2042
     16 C         141.1119  139.5198  163.8029 C.ar    1  UNL1        0.0342
     17 C         142.4521  139.7095  163.1565 C.ar    1  UNL1        0.0538
     18 C         141.9935  140.2855  167.5959 C.ar    1  UNL1        0.0022
     19 C         142.5633  139.2744  168.5461 C.ar    1  UNL1        0.0001
     20 C         142.4104  139.4664  170.0260 C.ar    1  UNL1       -0.0001
     21 C         141.6878  140.6695  170.5555 C.ar    1  UNL1        0.0039
     22 C         141.1179  141.6806  169.6051 C.ar    1  UNL1        0.0714
     23 C         141.2708  141.4886  168.1254 C.ar    1  UNL1        0.0039
     24 C         140.3953  142.8836  170.1346 C.3     1  UNL1        0.4186
     25 F         139.6726  144.0867  170.6642 F       1  UNL1       -0.1659
     26 F         139.1572  142.0577  170.3215 F       1  UNL1       -0.1659
     27 F         141.6334  143.7096  169.9478 F       1  UNL1       -0.1659
     28 C         145.6167  141.6387  163.3224 C.3     1  UNL1        0.2525
     29 O         144.9797  140.2808  163.3434 O.3     1  UNL1       -0.4714
     30 S         142.5238  144.2669  158.0112 S.O2    1  UNL1        0.0748
     31 O         142.2038  145.1589  159.1740 O.2     1  UNL1       -0.1499
     32 O         142.8438  143.3750  156.8484 O.2     1  UNL1       -0.1499
     33 N         142.5035  145.4543  157.0948 N.pl3   1  UNL1       -0.1962
     34 H         143.3321  145.9572  156.9223 H       1  UNL1        0.1754
     35 C         141.2207  145.8755  156.4413 C.ar    1  UNL1        0.1893
     36 C         140.8981  145.7666  154.9805 C.ar    1  UNL1        0.0823
     37 C         139.5132  146.3033  154.7703 C.ar    1  UNL1        0.2152
     38 O         138.9799  146.7440  156.1013 O.2     1  UNL1       -0.3489
     39 N         140.0352  146.4796  157.1340 N.ar    1  UNL1       -0.0605
@<TRIPOS>BOND
     1    28    29    1
     2    29    11    1
     3    11    12   ar
     4    12    13   ar
     5    13    18    1
     6    18    19   ar
     7    19    20   ar
     8    20    21   ar
     9    21    22   ar
    10    22    24    1
    11    24    25    1
    12    24    26    1
    13    24    27    1
    14    22    23   ar
    15    13    14   ar
    16    14    15    1
    17    14    16   ar
    18    16    17   ar
    19    17     1    1
    20     1     2   ar
    21     2     3   ar
    22     3     4   ar
    23     4     5   ar
    24     5     6   ar
    25     6     7   ar
    26     7    30    1
    27    30    31    2
    28    30    32    2
    29    30    33    1
    30    33    35    1
    31    35    36   ar
    32    36    37   ar
    33    37    38   ar
    34    38    39   ar
    35     7     8   ar
    36     8     9   ar
    37     9    10   ar
    38    17    11   ar
    39    10     1   ar
    40    23    18   ar
    41    10     5   ar
    42    39    35   ar
    43    33    34    1
@<TRIPOS>MOLECULE
*****
 39 43 0 0 0
SMALL
GASTEIGER

@<TRIPOS>ATOM
      1 C         139.6846  141.3522  160.7708 C.ar    1  UNL1        0.0843
      2 N         138.7625  142.4331  160.2900 N.ar    1  UNL1       -0.2437
      3 C         138.4158  142.5304  158.8339 C.ar    1  UNL1        0.0988
      4 C         138.9911  141.5466  157.8586 C.ar    1  UNL1        0.0207
      5 C         139.9132  140.4656  158.3394 C.ar    1  UNL1        0.0043
      6 C         140.4885  139.4818  157.3642 C.ar    1  UNL1        0.0203
      7 C         141.4106  138.4009  157.8450 C.ar    1  UNL1        0.1252
      8 C         141.7574  138.3036  159.3011 C.ar    1  UNL1        0.0202
      9 C         141.1820  139.2874  160.2764 C.ar    1  UNL1        0.0029
     10 C         140.2599  140.3684  159.7955 C.ar    1  UNL1        0.0179
     11 C         139.1962  140.4090  163.1420 C.ar    1  UNL1        0.1402
     12 C         139.5429  140.3118  164.5981 C.ar    1  UNL1        0.0392
     13 C         140.7248  141.0604  165.1393 C.ar    1  UNL1        0.0305
     14 C         141.5599  141.9062  164.2243 C.ar    1  UNL1        0.1403
     15 F         142.7417  142.6548  164.7655 F       1  UNL1       -0.2042
     16 C         141.2132  142.0035  162.7682 C.ar    1  UNL1        0.0342
     17 C         140.0313  141.2549  162.2270 C.ar    1  UNL1        0.0538
     18 C         141.0715  140.9631  166.5954 C.ar    1  UNL1        0.0022
     19 C         142.1126  139.9858  167.0547 C.ar    1  UNL1        0.0001
     20 C         142.4594  139.8885  168.5109 C.ar    1  UNL1       -0.0001
     21 C         141.7650  140.7685  169.5077 C.ar    1  UNL1        0.0039
     22 C         140.7239  141.7458  169.0482 C.ar    1  UNL1        0.0714
     23 C         140.3772  141.8431  167.5921 C.ar    1  UNL1        0.0039
     24 C         140.0295  142.6258  170.0450 C.3     1  UNL1        0.4186
     25 F         139.3352  143.5058  171.0417 F       1  UNL1       -0.1659
     26 F         141.0852  143.6743  169.8546 F       1  UNL1       -0.1659
     27 F         138.9739  141.5773  170.2353 F       1  UNL1       -0.1659
     28 C         138.1605  138.2261  162.1869 C.3     1  UNL1        0.2525
     29 O         138.0144  139.6604  162.6007 O.3     1  UNL1       -0.4714
     30 S         141.9859  137.4171  156.8697 S.O2    1  UNL1        0.0748
     31 O         140.6012  136.9775  156.4962 O.2     1  UNL1       -0.1499
     32 O         143.3706  137.8566  157.2431 O.2     1  UNL1       -0.1499
     33 N         142.5613  136.4333  155.8944 N.pl3   1  UNL1       -0.1962
     34 H         142.9221  136.7470  155.0338 H       1  UNL1        0.1754
     35 C         142.5867  134.9716  156.2304 C.ar    1  UNL1        0.1893
     36 C         143.5139  134.3068  157.2042 C.ar    1  UNL1        0.0823
     37 C         143.1897  132.8424  157.2271 C.ar    1  UNL1        0.2152
     38 O         142.0621  132.6022  156.2674 O.2     1  UNL1       -0.3489
     39 N         141.6895  133.9181  155.6514 N.ar    1  UNL1       -0.0605
@<TRIPOS>BOND
     1    28    29    1
     2    29    11    1
     3    11    12   ar
     4    12    13   ar
     5    13    18    1
     6    18    19   ar
     7    19    20   ar
     8    20    21   ar
     9    21    22   ar
    10    22    24    1
    11    24    25    1
    12    24    26    1
    13    24    27    1
    14    22    23   ar
    15    13    14   ar
    16    14    15    1
    17    14    16   ar
    18    16    17   ar
    19    17     1    1
    20     1     2   ar
    21     2     3   ar
    22     3     4   ar
    23     4     5   ar
    24     5     6   ar
    25     6     7   ar
    26     7    30    1
    27    30    31    2
    28    30    32    2
    29    30    33    1
    30    33    35    1
    31    35    36   ar
    32    36    37   ar
    33    37    38   ar
    34    38    39   ar
    35     7     8   ar
    36     8     9   ar
    37     9    10   ar
    38    17    11   ar
    39    10     1   ar
    40    23    18   ar
    41    10     5   ar
    42    39    35   ar
    43    33    34    1
@<TRIPOS>MOLECULE
*****
 39 43 0 0 0
SMALL
GASTEIGER

@<TRIPOS>ATOM
      1 C         140.7842  140.1473  159.2576 C.ar    1  UNL1        0.0843
      2 N         141.0564  141.5433  158.7811 N.ar    1  UNL1       -0.2437
      3 C         140.7776  142.7105  159.6810 C.ar    1  UNL1        0.0988
      4 C         140.2267  142.4818  161.0573 C.ar    1  UNL1        0.0207
      5 C         139.9546  141.0857  161.5337 C.ar    1  UNL1        0.0043
      6 C         139.4037  140.8570  162.9100 C.ar    1  UNL1        0.0203
      7 C         139.1315  139.4609  163.3864 C.ar    1  UNL1        0.1252
      8 C         139.4103  138.2936  162.4866 C.ar    1  UNL1        0.0202
      9 C         139.9612  138.5224  161.1103 C.ar    1  UNL1        0.0029
     10 C         140.2333  139.9185  160.6338 C.ar    1  UNL1        0.0179
     11 C         142.4295  138.3617  158.3328 C.ar    1  UNL1        0.1402
     12 C         142.7083  137.1945  157.4330 C.ar    1  UNL1        0.0392
     13 C         141.6206  136.6453  156.5580 C.ar    1  UNL1        0.0305
     14 C         140.2541  137.2635  156.5829 C.ar    1  UNL1        0.1403
     15 F         139.1665  136.7144  155.7081 F       1  UNL1       -0.2042
     16 C         139.9753  138.4309  157.4828 C.ar    1  UNL1        0.0342
     17 C         141.0630  138.9799  158.3577 C.ar    1  UNL1        0.0538
     18 C         141.8994  135.4780  155.6582 C.ar    1  UNL1        0.0022
     19 C         141.6022  135.5743  154.1911 C.ar    1  UNL1        0.0001
     20 C         141.8810  134.4070  153.2912 C.ar    1  UNL1       -0.0001
     21 C         142.4570  133.1435  153.8585 C.ar    1  UNL1        0.0039
     22 C         142.7541  133.0473  155.3257 C.ar    1  UNL1        0.0714
     23 C         142.4753  134.2145  156.2255 C.ar    1  UNL1        0.0039
     24 C         143.3301  131.7837  155.8930 C.3     1  UNL1        0.4186
     25 F         143.9060  130.5202  156.4603 F       1  UNL1       -0.1659
     26 F         144.0828  131.5536  154.6161 F       1  UNL1       -0.1659
     27 F         142.5773  132.0139  157.1698 F       1  UNL1       -0.1659
     28 C         143.6993  138.3816  160.5993 C.3     1  UNL1        0.2525
     29 O         143.5172  138.9109  159.2077 O.3     1  UNL1       -0.4714
     30 S         138.5807  139.2322  164.7627 S.O2    1  UNL1        0.0748
     31 O         139.0880  137.8209  164.7312 O.2     1  UNL1       -0.1499
     32 O         138.0733  140.6434  164.7942 O.2     1  UNL1       -0.1499
     33 N         138.0298  139.0034  166.1390 N.pl3   1  UNL1       -0.1962
     34 H         137.1422  138.5926  166.2520 H       1  UNL1        0.1754
     35 C         138.8312  139.4006  167.3432 C.ar    1  UNL1        0.1893
     36 C         140.2638  139.8450  167.3415 C.ar    1  UNL1        0.0823
     37 C         140.6586  140.1422  168.7578 C.ar    1  UNL1        0.2152
     38 O         139.4700  139.8813  169.6349 O.2     1  UNL1       -0.3489
     39 N         138.3406  139.4230  168.7606 N.ar    1  UNL1       -0.0605
@<TRIPOS>BOND
     1    28    29    1
     2    29    11    1
     3    11    12   ar
     4    12    13   ar
     5    13    18    1
     6    18    19   ar
     7    19    20   ar
     8    20    21   ar
     9    21    22   ar
    10    22    24    1
    11    24    25    1
    12    24    26    1
    13    24    27    1
    14    22    23   ar
    15    13    14   ar
    16    14    15    1
    17    14    16   ar
    18    16    17   ar
    19    17     1    1
    20     1     2   ar
    21     2     3   ar
    22     3     4   ar
    23     4     5   ar
    24     5     6   ar
    25     6     7   ar
    26     7    30    1
    27    30    31    2
    28    30    32    2
    29    30    33    1
    30    33    35    1
    31    35    36   ar
    32    36    37   ar
    33    37    38   ar
    34    38    39   ar
    35     7     8   ar
    36     8     9   ar
    37     9    10   ar
    38    17    11   ar
    39    10     1   ar
    40    23    18   ar
    41    10     5   ar
    42    39    35   ar
    43    33    34    1
@<TRIPOS>MOLECULE
*****
 39 43 0 0 0
SMALL
GASTEIGER

@<TRIPOS>ATOM
      1 C         142.1981  141.7645  167.3807 C.ar    1  UNL1        0.0843
      2 N         143.0765  142.5549  168.3046 N.ar    1  UNL1       -0.2437
      3 C         142.7482  142.6347  169.7660 C.ar    1  UNL1        0.0988
      4 C         141.5416  141.9241  170.3036 C.ar    1  UNL1        0.0207
      5 C         140.6631  141.1338  169.3797 C.ar    1  UNL1        0.0043
      6 C         139.4564  140.4232  169.9173 C.ar    1  UNL1        0.0203
      7 C         138.5780  139.6328  168.9934 C.ar    1  UNL1        0.1252
      8 C         138.9062  139.5529  167.5319 C.ar    1  UNL1        0.0202
      9 C         140.1129  140.2635  166.9943 C.ar    1  UNL1        0.0029
     10 C         140.9914  141.0539  167.9183 C.ar    1  UNL1        0.0179
     11 C         141.8459  142.6018  164.9466 C.ar    1  UNL1        0.1402
     12 C         142.1741  142.5220  163.4851 C.ar    1  UNL1        0.0392
     13 C         143.1827  141.5250  162.9962 C.ar    1  UNL1        0.0305
     14 C         143.8631  140.6079  163.9689 C.ar    1  UNL1        0.1403
     15 F         144.8716  139.6110  163.4801 F       1  UNL1       -0.2042
     16 C         143.5348  140.6878  165.4304 C.ar    1  UNL1        0.0342
     17 C         142.5263  141.6847  165.9192 C.ar    1  UNL1        0.0538
     18 C         143.5109  141.4452  161.5348 C.ar    1  UNL1        0.0022
     19 C         144.2622  142.5620  160.8728 C.ar    1  UNL1        0.0001
     20 C         144.5904  142.4822  159.4113 C.ar    1  UNL1       -0.0001
     21 C         144.1673  141.2857  158.6118 C.ar    1  UNL1        0.0039
     22 C         143.4159  140.1689  159.2739 C.ar    1  UNL1        0.0714
     23 C         143.0877  140.2487  160.7353 C.ar    1  UNL1        0.0039
     24 C         142.9927  138.9723  158.4744 C.3     1  UNL1        0.4186
     25 F         142.5695  137.7757  157.6749 F       1  UNL1       -0.1659
     26 F         143.7579  139.4910  157.2931 F       1  UNL1       -0.1659
     27 F         142.2275  138.4537  159.6557 F       1  UNL1       -0.1659
     28 C         140.0200  144.3827  164.4519 C.3     1  UNL1        0.2525
     29 O         140.8373  143.5987  165.4355 O.3     1  UNL1       -0.4714
     30 S         137.3713  138.9222  169.5310 S.O2    1  UNL1        0.0748
     31 O         137.1963  138.2238  168.2151 O.2     1  UNL1       -0.1499
     32 O         137.5463  139.6205  170.8469 O.2     1  UNL1       -0.1499
     33 N         136.1646  138.2116  170.0686 N.pl3   1  UNL1       -0.1962
     34 H         135.3733  138.0839  169.4970 H       1  UNL1        0.1754
     35 C         136.1637  137.6955  171.4770 C.ar    1  UNL1        0.1893
     36 C         135.2915  138.1851  172.5949 C.ar    1  UNL1        0.0823
     37 C         135.6235  137.3915  173.8236 C.ar    1  UNL1        0.2152
     38 O         136.7010  136.4113  173.4652 O.2     1  UNL1       -0.3489
     39 N         137.0348  136.5993  172.0149 N.ar    1  UNL1       -0.0605
@<TRIPOS>BOND
     1    28    29    1
     2    29    11    1
     3    11    12   ar
     4    12    13   ar
     5    13    18    1
     6    18    19   ar
     7    19    20   ar
     8    20    21   ar
     9    21    22   ar
    10    22    24    1
    11    24    25    1
    12    24    26    1
    13    24    27    1
    14    22    23   ar
    15    13    14   ar
    16    14    15    1
    17    14    16   ar
    18    16    17   ar
    19    17     1    1
    20     1     2   ar
    21     2     3   ar
    22     3     4   ar
    23     4     5   ar
    24     5     6   ar
    25     6     7   ar
    26     7    30    1
    27    30    31    2
    28    30    32    2
    29    30    33    1
    30    33    35    1
    31    35    36   ar
    32    36    37   ar
    33    37    38   ar
    34    38    39   ar
    35     7     8   ar
    36     8     9   ar
    37     9    10   ar
    38    17    11   ar
    39    10     1   ar
    40    23    18   ar
    41    10     5   ar
    42    39    35   ar
    43    33    34    1
