@<TRIPOS>MOLECULE
*****
 27 30 0 0 0
SMALL
GASTEIGER

@<TRIPOS>ATOM
      1 C         140.9904  142.4592  168.0902 C.ar    1  UNL1       -0.0168
      2 C         142.4431  142.1573  167.8697 C.ar    1  UNL1       -0.0041
      3 C         143.0258  142.2422  166.4901 C.ar    1  UNL1       -0.0003
      4 C         142.1557  142.6290  165.3310 C.ar    1  UNL1       -0.0003
      5 C         140.7030  142.9309  165.5515 C.ar    1  UNL1       -0.0032
      6 C         140.1204  142.8460  166.9311 C.ar    1  UNL1       -0.0044
      7 C         139.8330  143.3177  164.3924 C.2     1  UNL1       -0.0011
      8 C         139.8369  144.7312  163.8906 C.2     1  UNL1        0.0472
      9 C         138.9669  145.1180  162.7316 C.2     1  UNL1        0.2354
     10 N         138.0929  144.0912  162.0744 N.2     1  UNL1       -0.0320
     11 C         138.0889  142.6777  162.5762 C.2     1  UNL1        0.3872
     12 N         137.3380  141.4573  162.1328 N.2     1  UNL1        0.0820
     13 N         137.7440  140.3162  163.0178 N.2     1  UNL1       -0.0337
     14 C         138.7458  140.8314  164.0082 C.2     1  UNL1        0.1921
     15 C         138.9590  142.2910  163.7352 C.3     1  UNL1        0.1845
     16 C         139.4167  140.0282  165.0828 C.3     1  UNL1        0.4355
     17 F         140.0874  139.2251  166.1575 F       1  UNL1       -0.1645
     18 F         138.1960  140.1614  165.9442 F       1  UNL1       -0.1645
     19 F         140.6287  139.7370  164.5646 F       1  UNL1       -0.1645
     20 C         140.4077  142.3742  169.4698 C.3     1  UNL1        0.0877
     21 C         139.8511  141.0183  169.1512 C.3     1  UNL1        0.1498
     22 O         139.2685  140.9333  170.5308 O.3     1  UNL1       -0.3528
     23 C         139.8251  142.2893  170.8494 C.3     1  UNL1        0.1498
     24 N         140.0631  144.8050  170.3199 N.3     1  UNL1       -0.3207
     25 C         140.9644  143.7302  169.7884 C.3     1  UNL1        0.0741
     26 H         140.6045  145.6546  170.4795 H       1  UNL1        0.1189
     27 H         139.6477  144.4964  171.1989 H       1  UNL1        0.1189
@<TRIPOS>BOND
     1    24    25    1
     2    25    20    1
     3    20     1    1
     4     1     2   ar
     5     2     3   ar
     6     3     4   ar
     7     4     5   ar
     8     5     7    1
     9     7     8    2
    10     8     9    1
    11     9    10    2
    12    10    11    1
    13    11    12    2
    14    12    13    1
    15    13    14    2
    16    14    16    1
    17    16    17    1
    18    16    18    1
    19    16    19    1
    20    14    15    1
    21     5     6   ar
    22    20    21    1
    23    21    22    1
    24    22    23    1
    25    23    20    1
    26     6     1   ar
    27    15     7    1
    28    15    11    1
    29    24    26    1
    30    24    27    1
@<TRIPOS>MOLECULE
*****
 27 30 0 0 0
SMALL
GASTEIGER

@<TRIPOS>ATOM
      1 C         141.0899  140.7735  168.4091 C.ar    1  UNL1       -0.0168
      2 C         142.5048  140.4999  167.9925 C.ar    1  UNL1       -0.0041
      3 C         142.9897  140.9473  166.6453 C.ar    1  UNL1       -0.0003
      4 C         142.0597  141.6681  165.7149 C.ar    1  UNL1       -0.0003
      5 C         140.6450  141.9416  166.1315 C.ar    1  UNL1       -0.0032
      6 C         140.1601  141.4943  167.4787 C.ar    1  UNL1       -0.0044
      7 C         139.7151  142.6625  165.2011 C.2     1  UNL1       -0.0011
      8 C         139.6787  144.1620  165.1901 C.2     1  UNL1        0.0472
      9 C         138.7488  144.8828  164.2596 C.2     1  UNL1        0.2354
     10 N         137.8553  144.1041  163.3402 N.2     1  UNL1       -0.0320
     11 C         137.8917  142.6046  163.3512 C.2     1  UNL1        0.3872
     12 N         137.1338  141.5764  162.5650 N.2     1  UNL1        0.0820
     13 N         137.5952  140.2201  163.0094 N.2     1  UNL1       -0.0337
     14 C         138.6384  140.4100  164.0704 C.2     1  UNL1        0.1921
     15 C         138.8216  141.8838  164.2817 C.3     1  UNL1        0.1845
     16 C         139.3699  139.3181  164.7933 C.3     1  UNL1        0.4355
     17 F         140.1013  138.2261  165.5162 F       1  UNL1       -0.1645
     18 F         138.2510  139.2273  165.7881 F       1  UNL1       -0.1645
     19 F         140.5062  139.1596  164.0820 F       1  UNL1       -0.1645
     20 C         140.6050  140.3261  169.7562 C.3     1  UNL1        0.0877
     21 C         139.2032  140.2534  169.2275 C.3     1  UNL1        0.1498
     22 O         138.7183  139.8061  170.5746 O.3     1  UNL1       -0.3528
     23 C         140.1201  139.8788  171.1034 C.3     1  UNL1        0.1498
     24 N         142.2472  140.7073  171.7331 N.3     1  UNL1       -0.3207
     25 C         142.0068  140.3988  170.2850 C.3     1  UNL1        0.0741
     26 H         143.2505  140.7169  171.9167 H       1  UNL1        0.1189
     27 H         141.8025  139.9941  172.3110 H       1  UNL1        0.1189
@<TRIPOS>BOND
     1    24    25    1
     2    25    20    1
     3    20     1    1
     4     1     2   ar
     5     2     3   ar
     6     3     4   ar
     7     4     5   ar
     8     5     7    1
     9     7     8    2
    10     8     9    1
    11     9    10    2
    12    10    11    1
    13    11    12    2
    14    12    13    1
    15    13    14    2
    16    14    16    1
    17    16    17    1
    18    16    18    1
    19    16    19    1
    20    14    15    1
    21     5     6   ar
    22    20    21    1
    23    21    22    1
    24    22    23    1
    25    23    20    1
    26     6     1   ar
    27    15     7    1
    28    15    11    1
    29    24    26    1
    30    24    27    1
@<TRIPOS>MOLECULE
*****
 27 30 0 0 0
SMALL
GASTEIGER

@<TRIPOS>ATOM
      1 C         140.1692  141.6168  168.4225 C.ar    1  UNL1       -0.0168
      2 C         139.6402  140.2651  168.0439 C.ar    1  UNL1       -0.0041
      3 C         139.3609  139.9451  166.6053 C.ar    1  UNL1       -0.0003
      4 C         139.6105  140.9768  165.5453 C.ar    1  UNL1       -0.0003
      5 C         140.1395  142.3283  165.9239 C.ar    1  UNL1       -0.0032
      6 C         140.4189  142.6483  167.3625 C.ar    1  UNL1       -0.0044
      7 C         140.3892  143.3600  164.8640 C.2     1  UNL1       -0.0011
      8 C         139.2503  144.1762  164.3287 C.2     1  UNL1        0.0472
      9 C         139.5000  145.2078  163.2688 C.2     1  UNL1        0.2354
     10 N         140.8887  145.4231  162.7441 N.2     1  UNL1       -0.0320
     11 C         142.0276  144.6069  163.2794 C.2     1  UNL1        0.3872
     12 N         143.4927  144.5957  162.9577 N.2     1  UNL1        0.0820
     13 N         144.1484  143.5571  163.8188 N.2     1  UNL1       -0.0337
     14 C         143.0886  142.9265  164.6727 C.2     1  UNL1        0.1921
     15 C         141.7779  143.5753  164.3393 C.3     1  UNL1        0.1845
     16 C         143.3021  141.8382  165.6827 C.3     1  UNL1        0.4355
     17 F         143.5155  140.7500  166.6927 F       1  UNL1       -0.1645
     18 F         143.7635  142.8567  166.6825 F       1  UNL1       -0.1645
     19 F         142.9456  140.7119  165.0295 F       1  UNL1       -0.1645
     20 C         140.4486  141.9368  169.8611 C.3     1  UNL1        0.0877
     21 C         140.2336  140.4971  170.2231 C.3     1  UNL1        0.1498
     22 O         140.5129  140.8171  171.6617 O.3     1  UNL1       -0.3528
     23 C         140.7279  142.2568  171.2997 C.3     1  UNL1        0.1498
     24 N         140.0761  144.4604  170.3534 N.3     1  UNL1       -0.3207
     25 C         140.6636  143.3765  169.4991 C.3     1  UNL1        0.0741
     26 H         140.3196  145.3707  169.9628 H       1  UNL1        0.1189
     27 H         140.4481  144.3862  171.3003 H       1  UNL1        0.1189
@<TRIPOS>BOND
     1    24    25    1
     2    25    20    1
     3    20     1    1
     4     1     2   ar
     5     2     3   ar
     6     3     4   ar
     7     4     5   ar
     8     5     7    1
     9     7     8    2
    10     8     9    1
    11     9    10    2
    12    10    11    1
    13    11    12    2
    14    12    13    1
    15    13    14    2
    16    14    16    1
    17    16    17    1
    18    16    18    1
    19    16    19    1
    20    14    15    1
    21     5     6   ar
    22    20    21    1
    23    21    22    1
    24    22    23    1
    25    23    20    1
    26     6     1   ar
    27    15     7    1
    28    15    11    1
    29    24    26    1
    30    24    27    1
@<TRIPOS>MOLECULE
*****
 27 30 0 0 0
SMALL
GASTEIGER

@<TRIPOS>ATOM
      1 C         141.3601  140.0025  167.5344 C.ar    1  UNL1       -0.0168
      2 C         142.7516  139.7196  167.0510 C.ar    1  UNL1       -0.0041
      3 C         143.0672  139.7971  165.5866 C.ar    1  UNL1       -0.0003
      4 C         141.9911  140.1574  164.6056 C.ar    1  UNL1       -0.0003
      5 C         140.5996  140.4402  165.0890 C.ar    1  UNL1       -0.0032
      6 C         140.2841  140.3627  166.5533 C.ar    1  UNL1       -0.0044
      7 C         139.5235  140.8005  164.1079 C.2     1  UNL1       -0.0011
      8 C         139.0686  142.2243  163.9830 C.2     1  UNL1        0.0472
      9 C         137.9926  142.5845  163.0021 C.2     1  UNL1        0.2354
     10 N         137.3715  141.5209  162.1459 N.2     1  UNL1       -0.0320
     11 C         137.8264  140.0971  162.2708 C.2     1  UNL1        0.3872
     12 N         137.4027  138.8425  161.5662 N.2     1  UNL1        0.0820
     13 N         138.2168  137.7069  162.1117 N.2     1  UNL1       -0.0337
     14 C         139.1437  138.2596  163.1535 C.2     1  UNL1        0.1921
     15 C         138.9024  139.7368  163.2518 C.3     1  UNL1        0.1845
     16 C         140.1375  137.4732  163.9560 C.3     1  UNL1        0.4355
     17 F         141.1312  136.6868  164.7585 F       1  UNL1       -0.1645
     18 F         141.0657  137.4443  162.7782 F       1  UNL1       -0.1645
     19 F         139.5433  137.3272  165.1594 F       1  UNL1       -0.1645
     20 C         141.0445  139.9250  168.9987 C.3     1  UNL1        0.0877
     21 C         139.5826  140.0592  168.6909 C.3     1  UNL1        0.1498
     22 O         139.2671  139.9818  170.1553 O.3     1  UNL1       -0.3528
     23 C         140.7290  139.8475  170.4631 C.3     1  UNL1        0.1498
     24 N         142.9468  139.1688  170.5986 N.3     1  UNL1       -0.3207
     25 C         142.5064  139.7907  169.3066 C.3     1  UNL1        0.0741
     26 H         143.9658  139.1586  170.6411 H       1  UNL1        0.1189
     27 H         142.5947  138.2130  170.6532 H       1  UNL1        0.1189
@<TRIPOS>BOND
     1    24    25    1
     2    25    20    1
     3    20     1    1
     4     1     2   ar
     5     2     3   ar
     6     3     4   ar
     7     4     5   ar
     8     5     7    1
     9     7     8    2
    10     8     9    1
    11     9    10    2
    12    10    11    1
    13    11    12    2
    14    12    13    1
    15    13    14    2
    16    14    16    1
    17    16    17    1
    18    16    18    1
    19    16    19    1
    20    14    15    1
    21     5     6   ar
    22    20    21    1
    23    21    22    1
    24    22    23    1
    25    23    20    1
    26     6     1   ar
    27    15     7    1
    28    15    11    1
    29    24    26    1
    30    24    27    1
@<TRIPOS>MOLECULE
*****
 27 30 0 0 0
SMALL
GASTEIGER

@<TRIPOS>ATOM
      1 C         141.9833  142.8897  164.7339 C.ar    1  UNL1       -0.0168
      2 C         143.3548  142.2821  164.7391 C.ar    1  UNL1       -0.0041
      3 C         143.5896  140.9661  165.4196 C.ar    1  UNL1       -0.0003
      4 C         142.4528  140.2577  166.0949 C.ar    1  UNL1       -0.0003
      5 C         141.0814  140.8652  166.0897 C.ar    1  UNL1       -0.0032
      6 C         140.8467  142.1812  165.4092 C.ar    1  UNL1       -0.0044
      7 C         139.9446  140.1567  166.7650 C.2     1  UNL1       -0.0011
      8 C         139.0433  139.2583  165.9710 C.2     1  UNL1        0.0472
      9 C         137.9066  138.5499  166.6463 C.2     1  UNL1        0.2354
     10 N         137.6713  138.7399  168.1155 N.2     1  UNL1       -0.0320
     11 C         138.5727  139.6383  168.9094 C.2     1  UNL1        0.3872
     12 N         138.5872  140.0171  170.3608 N.2     1  UNL1        0.0820
     13 N         139.7329  140.9596  170.5824 N.2     1  UNL1       -0.0337
     14 C         140.4264  141.1633  169.2681 C.2     1  UNL1        0.1921
     15 C         139.7094  140.3467  168.2341 C.3     1  UNL1        0.1845
     16 C         141.6264  142.0313  169.0296 C.3     1  UNL1        0.4355
     17 F         142.8263  142.8991  168.7911 F       1  UNL1       -0.1645
     18 F         142.5230  140.9128  169.4711 F       1  UNL1       -0.1645
     19 F         141.1047  143.1969  168.5922 F       1  UNL1       -0.1645
     20 C         141.7486  144.2057  164.0535 C.3     1  UNL1        0.0877
     21 C         140.2672  144.0079  164.1821 C.3     1  UNL1        0.1498
     22 O         140.0325  145.3239  163.5016 O.3     1  UNL1       -0.3528
     23 C         141.5138  145.5217  163.3730 C.3     1  UNL1        0.1498
     24 N         143.7829  145.2110  162.7882 N.3     1  UNL1       -0.3207
     25 C         143.2299  144.4034  163.9248 C.3     1  UNL1        0.0741
     26 H         144.8001  145.2415  162.8561 H       1  UNL1        0.1189
     27 H         143.4106  146.1596  162.8325 H       1  UNL1        0.1189
@<TRIPOS>BOND
     1    24    25    1
     2    25    20    1
     3    20     1    1
     4     1     2   ar
     5     2     3   ar
     6     3     4   ar
     7     4     5   ar
     8     5     7    1
     9     7     8    2
    10     8     9    1
    11     9    10    2
    12    10    11    1
    13    11    12    2
    14    12    13    1
    15    13    14    2
    16    14    16    1
    17    16    17    1
    18    16    18    1
    19    16    19    1
    20    14    15    1
    21     5     6   ar
    22    20    21    1
    23    21    22    1
    24    22    23    1
    25    23    20    1
    26     6     1   ar
    27    15     7    1
    28    15    11    1
    29    24    26    1
    30    24    27    1
@<TRIPOS>MOLECULE
*****
 27 30 0 0 0
SMALL
GASTEIGER

@<TRIPOS>ATOM
      1 C         140.2454  141.4892  167.8898 C.ar    1  UNL1       -0.0168
      2 C         139.6239  140.2476  167.3222 C.ar    1  UNL1       -0.0041
      3 C         139.7095  139.9716  165.8503 C.ar    1  UNL1       -0.0003
      4 C         140.4165  140.9372  164.9460 C.ar    1  UNL1       -0.0003
      5 C         141.0380  142.1788  165.5137 C.ar    1  UNL1       -0.0032
      6 C         140.9524  142.4548  166.9856 C.ar    1  UNL1       -0.0044
      7 C         141.7450  143.1445  164.6094 C.2     1  UNL1       -0.0011
      8 C         143.2440  143.1651  164.5594 C.2     1  UNL1        0.0472
      9 C         143.9510  144.1308  163.6551 C.2     1  UNL1        0.2354
     10 N         143.1590  145.0757  162.8009 N.2     1  UNL1       -0.0320
     11 C         141.6600  145.0551  162.8509 C.2     1  UNL1        0.3872
     12 N         140.6204  145.8610  162.1299 N.2     1  UNL1        0.0820
     13 N         139.2710  145.3934  162.5885 N.2     1  UNL1       -0.0337
     14 C         139.4765  144.2985  163.5930 C.2     1  UNL1        0.1921
     15 C         140.9530  144.0895  163.7551 C.3     1  UNL1        0.1845
     16 C         138.3954  143.5451  164.3095 C.3     1  UNL1        0.4355
     17 F         137.3143  142.7916  165.0261 F       1  UNL1       -0.1645
     18 F         138.5613  144.4405  165.5014 F       1  UNL1       -0.1645
     19 F         138.0150  142.5991  163.4248 F       1  UNL1       -0.1645
     20 C         140.1598  141.7652  169.3617 C.3     1  UNL1        0.0877
     21 C         140.4538  143.2139  169.1072 C.3     1  UNL1        0.1498
     22 O         140.3682  143.4899  170.5791 O.3     1  UNL1       -0.3528
     23 C         140.0742  142.0412  170.8336 C.3     1  UNL1        0.1498
     24 N         139.8731  139.7849  171.0189 N.3     1  UNL1       -0.3207
     25 C         139.8658  140.3165  169.6163 C.3     1  UNL1        0.0741
     26 H         139.6544  138.7888  171.0061 H       1  UNL1        0.1189
     27 H         139.1742  140.2793  171.5735 H       1  UNL1        0.1189
@<TRIPOS>BOND
     1    24    25    1
     2    25    20    1
     3    20     1    1
     4     1     2   ar
     5     2     3   ar
     6     3     4   ar
     7     4     5   ar
     8     5     7    1
     9     7     8    2
    10     8     9    1
    11     9    10    2
    12    10    11    1
    13    11    12    2
    14    12    13    1
    15    13    14    2
    16    14    16    1
    17    16    17    1
    18    16    18    1
    19    16    19    1
    20    14    15    1
    21     5     6   ar
    22    20    21    1
    23    21    22    1
    24    22    23    1
    25    23    20    1
    26     6     1   ar
    27    15     7    1
    28    15    11    1
    29    24    26    1
    30    24    27    1
@<TRIPOS>MOLECULE
*****
 27 30 0 0 0
SMALL
GASTEIGER

@<TRIPOS>ATOM
      1 C         141.4531  142.2145  168.4791 C.ar    1  UNL1       -0.0168
      2 C         140.2214  142.9368  168.0192 C.ar    1  UNL1       -0.0041
      3 C         140.0434  143.2658  166.5666 C.ar    1  UNL1       -0.0003
      4 C         141.0970  142.8726  165.5739 C.ar    1  UNL1       -0.0003
      5 C         142.3286  142.1504  166.0338 C.ar    1  UNL1       -0.0032
      6 C         142.5066  141.8214  167.4864 C.ar    1  UNL1       -0.0044
      7 C         143.3822  141.7572  165.0411 C.2     1  UNL1       -0.0011
      8 C         144.5428  142.6702  164.7781 C.2     1  UNL1        0.0472
      9 C         145.5964  142.2770  163.7854 C.2     1  UNL1        0.2354
     10 N         145.4892  140.9708  163.0558 N.2     1  UNL1       -0.0320
     11 C         144.3286  140.0578  163.3189 C.2     1  UNL1        0.3872
     12 N         143.9580  138.7177  162.7560 N.2     1  UNL1        0.0820
     13 N         142.6754  138.2827  163.4008 N.2     1  UNL1       -0.0337
     14 C         142.2533  139.3539  164.3622 C.2     1  UNL1        0.1921
     15 C         143.2751  140.4510  164.3115 C.3     1  UNL1        0.1845
     16 C         141.0251  139.3320  165.2230 C.3     1  UNL1        0.4355
     17 F         139.7969  139.3100  166.0838 F       1  UNL1       -0.1645
     18 F         140.2152  139.8704  164.0811 F       1  UNL1       -0.1645
     19 F         141.4649  138.8570  166.4076 F       1  UNL1       -0.1645
     20 C         141.6311  141.8854  169.9317 C.3     1  UNL1        0.0877
     21 C         140.3579  142.6108  170.2521 C.3     1  UNL1        0.1498
     22 O         140.5359  142.2818  171.7047 O.3     1  UNL1       -0.3528
     23 C         141.8092  141.5564  171.3843 C.3     1  UNL1        0.1498
     24 N         143.4825  140.1885  170.5971 N.3     1  UNL1       -0.3207
     25 C         142.9044  141.1600  169.6113 C.3     1  UNL1        0.0741
     26 H         144.3421  139.7909  170.2184 H       1  UNL1        0.1189
     27 H         142.8106  139.4414  170.7721 H       1  UNL1        0.1189
@<TRIPOS>BOND
     1    24    25    1
     2    25    20    1
     3    20     1    1
     4     1     2   ar
     5     2     3   ar
     6     3     4   ar
     7     4     5   ar
     8     5     7    1
     9     7     8    2
    10     8     9    1
    11     9    10    2
    12    10    11    1
    13    11    12    2
    14    12    13    1
    15    13    14    2
    16    14    16    1
    17    16    17    1
    18    16    18    1
    19    16    19    1
    20    14    15    1
    21     5     6   ar
    22    20    21    1
    23    21    22    1
    24    22    23    1
    25    23    20    1
    26     6     1   ar
    27    15     7    1
    28    15    11    1
    29    24    26    1
    30    24    27    1
@<TRIPOS>MOLECULE
*****
 27 30 0 0 0
SMALL
GASTEIGER

@<TRIPOS>ATOM
      1 C         140.7351  141.6689  167.9158 C.ar    1  UNL1       -0.0168
      2 C         142.1329  142.1175  167.6074 C.ar    1  UNL1       -0.0041
      3 C         142.7284  141.8427  166.2584 C.ar    1  UNL1       -0.0003
      4 C         141.9261  141.1192  165.2177 C.ar    1  UNL1       -0.0003
      5 C         140.5283  140.6706  165.5261 C.ar    1  UNL1       -0.0032
      6 C         139.9329  140.9455  166.8751 C.ar    1  UNL1       -0.0044
      7 C         139.7260  139.9472  164.4854 C.2     1  UNL1       -0.0011
      8 C         139.7923  138.4515  164.3929 C.2     1  UNL1        0.0472
      9 C         138.9900  137.7282  163.3523 C.2     1  UNL1        0.2354
     10 N         138.1214  138.5004  162.4040 N.2     1  UNL1       -0.0320
     11 C         138.0551  139.9961  162.4965 C.2     1  UNL1        0.3872
     12 N         137.2939  141.0179  161.7050 N.2     1  UNL1        0.0820
     13 N         137.6257  142.3728  162.2565 N.2     1  UNL1       -0.0337
     14 C         138.5921  142.1884  163.3888 C.2     1  UNL1        0.1921
     15 C         138.8574  140.7195  163.5371 C.3     1  UNL1        0.1845
     16 C         139.1883  143.2810  164.2259 C.3     1  UNL1        0.4355
     17 F         139.7845  144.3736  165.0630 F       1  UNL1       -0.1645
     18 F         137.9797  143.2600  165.1141 F       1  UNL1       -0.1645
     19 F         140.3735  143.5372  163.6326 F       1  UNL1       -0.1645
     20 C         140.1396  141.9437  169.2648 C.3     1  UNL1        0.0877
     21 C         140.6674  143.3468  169.2119 C.3     1  UNL1        0.1498
     22 O         140.0719  143.6216  170.5609 O.3     1  UNL1       -0.3528
     23 C         139.5441  142.2185  170.6138 C.3     1  UNL1        0.1498
     24 N         139.1863  139.9483  170.6284 N.3     1  UNL1       -0.3207
     25 C         139.6119  140.5406  169.3177 C.3     1  UNL1        0.0741
     26 H         138.8567  138.9945  170.4794 H       1  UNL1        0.1189
     27 H         138.4338  140.5098  171.0269 H       1  UNL1        0.1189
@<TRIPOS>BOND
     1    24    25    1
     2    25    20    1
     3    20     1    1
     4     1     2   ar
     5     2     3   ar
     6     3     4   ar
     7     4     5   ar
     8     5     7    1
     9     7     8    2
    10     8     9    1
    11     9    10    2
    12    10    11    1
    13    11    12    2
    14    12    13    1
    15    13    14    2
    16    14    16    1
    17    16    17    1
    18    16    18    1
    19    16    19    1
    20    14    15    1
    21     5     6   ar
    22    20    21    1
    23    21    22    1
    24    22    23    1
    25    23    20    1
    26     6     1   ar
    27    15     7    1
    28    15    11    1
    29    24    26    1
    30    24    27    1
@<TRIPOS>MOLECULE
*****
 27 30 0 0 0
SMALL
GASTEIGER

@<TRIPOS>ATOM
      1 C         142.6036  141.4361  167.3116 C.ar    1  UNL1       -0.0168
      2 C         143.4925  142.4833  166.7088 C.ar    1  UNL1       -0.0041
      3 C         143.2677  142.9353  165.2963 C.ar    1  UNL1       -0.0003
      4 C         142.1539  142.3402  164.4866 C.ar    1  UNL1       -0.0003
      5 C         141.2651  141.2931  165.0895 C.ar    1  UNL1       -0.0032
      6 C         141.4900  140.8410  166.5020 C.ar    1  UNL1       -0.0044
      7 C         140.1514  140.6979  164.2799 C.2     1  UNL1       -0.0011
      8 C         138.8397  141.4166  164.1665 C.2     1  UNL1        0.0472
      9 C         137.7260  140.8214  163.3569 C.2     1  UNL1        0.2354
     10 N         137.9241  139.5076  162.6607 N.2     1  UNL1       -0.0320
     11 C         139.2358  138.7889  162.7741 C.2     1  UNL1        0.3872
     12 N         139.7206  137.4890  162.2040 N.2     1  UNL1        0.0820
     13 N         141.1340  137.2808  162.6612 N.2     1  UNL1       -0.0337
     14 C         141.5227  138.4520  163.5139 C.2     1  UNL1        0.1921
     15 C         140.3494  139.3841  163.5837 C.3     1  UNL1        0.1845
     16 C         142.8512  138.6554  164.1800 C.3     1  UNL1        0.4355
     17 F         144.1797  138.8589  164.8459 F       1  UNL1       -0.1645
     18 F         143.2950  139.5134  163.0324 F       1  UNL1       -0.1645
     19 F         142.7529  137.9505  165.3270 F       1  UNL1       -0.1645
     20 C         142.8285  140.9841  168.7241 C.3     1  UNL1        0.0877
     21 C         142.5770  139.5646  168.3099 C.3     1  UNL1        0.1498
     22 O         142.8018  139.1126  169.7224 O.3     1  UNL1       -0.3528
     23 C         143.0533  140.5321  170.1366 C.3     1  UNL1        0.1498
     24 N         144.1439  142.7126  170.1496 N.3     1  UNL1       -0.3207
     25 C         143.0800  142.4037  169.1384 C.3     1  UNL1        0.0741
     26 H         144.1775  143.7192  170.3111 H       1  UNL1        0.1189
     27 H         145.0478  142.3940  169.8003 H       1  UNL1        0.1189
@<TRIPOS>BOND
     1    24    25    1
     2    25    20    1
     3    20     1    1
     4     1     2   ar
     5     2     3   ar
     6     3     4   ar
     7     4     5   ar
     8     5     7    1
     9     7     8    2
    10     8     9    1
    11     9    10    2
    12    10    11    1
    13    11    12    2
    14    12    13    1
    15    13    14    2
    16    14    16    1
    17    16    17    1
    18    16    18    1
    19    16    19    1
    20    14    15    1
    21     5     6   ar
    22    20    21    1
    23    21    22    1
    24    22    23    1
    25    23    20    1
    26     6     1   ar
    27    15     7    1
    28    15    11    1
    29    24    26    1
    30    24    27    1
