@<TRIPOS>MOLECULE
*****
 34 38 0 0 0
SMALL
GASTEIGER

@<TRIPOS>ATOM
      1 N         141.9286  137.8257  157.5089 N.3     1  UNL1       -0.2704
      2 C         140.5134  138.1912  157.8460 C.3     1  UNL1        0.0722
      3 C         140.1253  138.4515  159.2713 C.3     1  UNL1        0.0175
      4 C         141.1523  138.3464  160.3595 C.3     1  UNL1        0.0060
      5 C         142.5675  137.9810  160.0224 C.3     1  UNL1        0.0175
      6 C         142.9556  137.7207  158.5971 C.3     1  UNL1        0.0722
      7 C         139.7371  138.7119  160.6967 C.3     1  UNL1        0.0216
      8 C         139.3490  138.9723  162.1220 C.3     1  UNL1        0.0922
      9 N         140.3760  138.8672  163.2102 N.pl3   1  UNL1       -0.2932
     10 C         141.7912  138.5017  162.8730 C.3     1  UNL1        0.0922
     11 C         142.1794  138.2414  161.4477 C.3     1  UNL1        0.0216
     12 C         139.9878  139.1276  164.6355 C.ar    1  UNL1        0.1317
     13 C         138.5926  138.8301  165.0992 C.ar    1  UNL1        0.0350
     14 C         138.2045  139.0905  166.5245 C.ar    1  UNL1        0.0147
     15 C         139.2116  139.6483  167.4861 C.ar    1  UNL1        0.0877
     16 C         140.6067  139.9457  167.0225 C.ar    1  UNL1        0.1105
     17 N         140.9948  139.6853  165.5972 N.ar    1  UNL1       -0.2285
     18 C         138.8234  139.9087  168.9115 C.1     1  UNL1        0.1020
     19 N         138.4352  140.1691  170.3368 N.1     1  UNL1       -0.1908
     20 C         142.3168  137.5654  156.0835 C.3     1  UNL1        0.1063
     21 C         143.4373  136.6180  155.7725 C.3     1  UNL1        0.1483
     22 O         144.7907  137.1513  155.4066 O.3     1  UNL1       -0.3786
     23 H         145.3949  136.4115  155.2375 H       1  UNL1        0.2108
     24 C         142.1886  135.2084  153.4371 C.3     1  UNL1        0.0306
     25 C         142.5801  134.4323  154.6596 C.ar    1  UNL1       -0.0238
     26 C         143.2044  135.1371  155.8273 C.ar    1  UNL1        0.0015
     27 C         143.5960  134.3611  157.0498 C.ar    1  UNL1       -0.0020
     28 C         143.3631  132.8803  157.1046 C.ar    1  UNL1        0.0060
     29 C         142.7388  132.1755  155.9370 C.ar    1  UNL1        0.0748
     30 C         142.3473  132.9516  154.7144 C.ar    1  UNL1        0.0233
     31 C         141.7557  131.9912  153.7256 C.3     1  UNL1        0.2352
     32 O         141.7815  130.6217  154.3370 O.3     1  UNL1       -0.4404
     33 C         142.3891  130.7356  155.7036 C.2     1  UNL1        0.3413
     34 O         142.6086  129.6077  156.6678 O.2     1  UNL1       -0.2449
@<TRIPOS>BOND
     1    24    25    1
     2    25    26   ar
     3    26    21    1
     4    21    22    1
     5    21    20    1
     6    20     1    1
     7     1     2    1
     8     2     3    1
     9     3     4    1
    10     4     5    1
    11     5     6    1
    12     4     7    1
    13     7     8    1
    14     8     9    1
    15     9    12    1
    16    12    13   ar
    17    13    14   ar
    18    14    15   ar
    19    15    18    1
    20    18    19    3
    21    15    16   ar
    22    16    17   ar
    23     9    10    1
    24    10    11    1
    25    26    27   ar
    26    27    28   ar
    27    28    29   ar
    28    29    30   ar
    29    30    31    1
    30    31    32    1
    31    32    33    1
    32    33    34    2
    33    30    25   ar
    34     6     1    1
    35    17    12   ar
    36    33    29    1
    37    11     4    1
    38    22    23    1
@<TRIPOS>MOLECULE
*****
 34 38 0 0 0
SMALL
GASTEIGER

@<TRIPOS>ATOM
      1 N         141.6088  137.9832  158.6670 N.3     1  UNL1       -0.2704
      2 C         142.7472  137.6475  159.5842 C.3     1  UNL1        0.0722
      3 C         142.6441  137.9508  161.0496 C.3     1  UNL1        0.0175
      4 C         141.4027  138.5898  161.5977 C.3     1  UNL1        0.0060
      5 C         140.2643  138.9255  160.6805 C.3     1  UNL1        0.0175
      6 C         140.3674  138.6222  159.2151 C.3     1  UNL1        0.0722
      7 C         142.5411  138.2541  162.5150 C.3     1  UNL1        0.0216
      8 C         142.4380  138.5574  163.9804 C.3     1  UNL1        0.0922
      9 N         141.1965  139.1964  164.5285 N.pl3   1  UNL1       -0.2932
     10 C         140.0582  139.5321  163.6113 C.3     1  UNL1        0.0922
     11 C         140.1612  139.2288  162.1458 C.3     1  UNL1        0.0216
     12 C         141.0935  139.4997  165.9940 C.ar    1  UNL1        0.1317
     13 C         142.3196  139.4560  166.8569 C.ar    1  UNL1        0.0350
     14 C         142.2165  139.7593  168.3223 C.ar    1  UNL1        0.0147
     15 C         140.8873  140.1063  168.9247 C.ar    1  UNL1        0.0877
     16 C         139.6612  140.1500  168.0617 C.ar    1  UNL1        0.1105
     17 N         139.7643  139.8467  166.5964 N.ar    1  UNL1       -0.2285
     18 C         140.7843  140.4096  170.3901 C.1     1  UNL1        0.1020
     19 N         140.6812  140.7129  171.8555 N.1     1  UNL1       -0.1908
     20 C         141.7119  137.6799  157.2015 C.3     1  UNL1        0.1063
     21 C         142.8859  136.9081  156.6761 C.3     1  UNL1        0.1483
     22 O         144.1111  137.6345  156.2058 O.3     1  UNL1       -0.3786
     23 H         144.7705  136.9921  155.9001 H       1  UNL1        0.2108
     24 C         141.1320  135.5402  154.6629 C.3     1  UNL1        0.0306
     25 C         141.9578  134.7261  155.6144 C.ar    1  UNL1       -0.0238
     26 C         142.8347  135.4100  156.6209 C.ar    1  UNL1        0.0015
     27 C         143.6604  134.5958  157.5724 C.ar    1  UNL1       -0.0020
     28 C         143.6093  133.0977  157.5173 C.ar    1  UNL1        0.0060
     29 C         142.7324  132.4138  156.5107 C.ar    1  UNL1        0.0748
     30 C         141.9066  133.2280  155.5592 C.ar    1  UNL1        0.0233
     31 C         141.1418  132.2814  154.6822 C.3     1  UNL1        0.2352
     32 O         141.4949  130.8822  155.0917 O.3     1  UNL1       -0.4404
     33 C         142.4779  130.9641  156.2217 C.2     1  UNL1        0.3413
     34 O         143.0977  129.8005  156.9372 O.2     1  UNL1       -0.2449
@<TRIPOS>BOND
     1    24    25    1
     2    25    26   ar
     3    26    21    1
     4    21    22    1
     5    21    20    1
     6    20     1    1
     7     1     2    1
     8     2     3    1
     9     3     4    1
    10     4     5    1
    11     5     6    1
    12     4     7    1
    13     7     8    1
    14     8     9    1
    15     9    12    1
    16    12    13   ar
    17    13    14   ar
    18    14    15   ar
    19    15    18    1
    20    18    19    3
    21    15    16   ar
    22    16    17   ar
    23     9    10    1
    24    10    11    1
    25    26    27   ar
    26    27    28   ar
    27    28    29   ar
    28    29    30   ar
    29    30    31    1
    30    31    32    1
    31    32    33    1
    32    33    34    2
    33    30    25   ar
    34     6     1    1
    35    17    12   ar
    36    33    29    1
    37    11     4    1
    38    22    23    1
@<TRIPOS>MOLECULE
*****
 34 38 0 0 0
SMALL
GASTEIGER

@<TRIPOS>ATOM
      1 N         143.9947  140.8567  163.5103 N.3     1  UNL1       -0.2704
      2 C         143.7949  139.3704  163.5357 C.3     1  UNL1        0.0722
      3 C         143.5368  138.6264  162.2590 C.3     1  UNL1        0.0175
      4 C         143.4785  139.3689  160.9570 C.3     1  UNL1        0.0060
      5 C         143.6783  140.8552  160.9315 C.3     1  UNL1        0.0175
      6 C         143.9364  141.5992  162.2082 C.3     1  UNL1        0.0722
      7 C         143.2787  137.8824  160.9823 C.3     1  UNL1        0.0216
      8 C         143.0207  137.1384  159.7057 C.3     1  UNL1        0.0922
      9 N         142.9624  137.8809  158.4036 N.pl3   1  UNL1       -0.2932
     10 C         143.1622  139.3673  158.3782 C.3     1  UNL1        0.0922
     11 C         143.4203  140.1113  159.6549 C.3     1  UNL1        0.0216
     12 C         142.7043  137.1368  157.1269 C.ar    1  UNL1        0.1317
     13 C         141.2961  136.9085  156.6635 C.ar    1  UNL1        0.0350
     14 C         141.0381  136.1645  155.3868 C.ar    1  UNL1        0.0147
     15 C         142.1882  135.6489  154.5736 C.ar    1  UNL1        0.0877
     16 C         143.5964  135.8772  155.0371 C.ar    1  UNL1        0.1105
     17 N         143.8544  136.6212  156.3137 N.ar    1  UNL1       -0.2285
     18 C         141.9301  134.9048  153.2969 C.1     1  UNL1        0.1020
     19 N         141.6720  134.1609  152.0203 N.1     1  UNL1       -0.1908
     20 C         144.2528  141.6008  164.7870 C.3     1  UNL1        0.1063
     21 C         143.1736  142.4487  165.3922 C.3     1  UNL1        0.1483
     22 O         142.7469  143.7166  164.7139 O.3     1  UNL1       -0.3786
     23 H         142.0453  144.1405  165.2325 H       1  UNL1        0.2108
     24 C         140.6617  140.8094  165.3317 C.3     1  UNL1        0.0306
     25 C         141.2651  141.2090  166.6456 C.ar    1  UNL1       -0.0238
     26 C         142.5210  142.0286  166.6759 C.ar    1  UNL1        0.0015
     27 C         143.1244  142.4281  167.9898 C.ar    1  UNL1       -0.0020
     28 C         142.4718  142.0080  169.2734 C.ar    1  UNL1        0.0060
     29 C         141.2159  141.1884  169.2431 C.ar    1  UNL1        0.0748
     30 C         140.6126  140.7889  167.9292 C.ar    1  UNL1        0.0233
     31 C         139.3782  139.9848  168.2114 C.3     1  UNL1        0.2352
     32 O         139.2186  139.8873  169.6997 O.3     1  UNL1       -0.4404
     33 C         140.3544  140.6312  170.3373 C.2     1  UNL1        0.3413
     34 O         140.5878  140.7900  171.8105 O.2     1  UNL1       -0.2449
@<TRIPOS>BOND
     1    24    25    1
     2    25    26   ar
     3    26    21    1
     4    21    22    1
     5    21    20    1
     6    20     1    1
     7     1     2    1
     8     2     3    1
     9     3     4    1
    10     4     5    1
    11     5     6    1
    12     4     7    1
    13     7     8    1
    14     8     9    1
    15     9    12    1
    16    12    13   ar
    17    13    14   ar
    18    14    15   ar
    19    15    18    1
    20    18    19    3
    21    15    16   ar
    22    16    17   ar
    23     9    10    1
    24    10    11    1
    25    26    27   ar
    26    27    28   ar
    27    28    29   ar
    28    29    30   ar
    29    30    31    1
    30    31    32    1
    31    32    33    1
    32    33    34    2
    33    30    25   ar
    34     6     1    1
    35    17    12   ar
    36    33    29    1
    37    11     4    1
    38    22    23    1
@<TRIPOS>MOLECULE
*****
 34 38 0 0 0
SMALL
GASTEIGER

@<TRIPOS>ATOM
      1 N         141.6675  137.8782  157.4002 N.3     1  UNL1       -0.2704
      2 C         142.7465  137.8526  158.4418 C.3     1  UNL1        0.0722
      3 C         142.4066  138.1086  159.8801 C.3     1  UNL1        0.0175
      4 C         140.9877  138.3902  160.2769 C.3     1  UNL1        0.0060
      5 C         139.9087  138.4158  159.2353 C.3     1  UNL1        0.0175
      6 C         140.2486  138.1598  157.7969 C.3     1  UNL1        0.0722
      7 C         142.0668  138.3646  161.3186 C.3     1  UNL1        0.0216
      8 C         141.7269  138.6206  162.7569 C.3     1  UNL1        0.0922
      9 N         140.3080  138.9022  163.1537 N.pl3   1  UNL1       -0.2932
     10 C         139.2290  138.9278  162.1120 C.3     1  UNL1        0.0922
     11 C         139.5688  138.6718  160.6736 C.3     1  UNL1        0.0216
     12 C         139.9681  139.1582  164.5921 C.ar    1  UNL1        0.1317
     13 C         138.6018  138.8213  165.1113 C.ar    1  UNL1        0.0350
     14 C         138.2620  139.0774  166.5497 C.ar    1  UNL1        0.0147
     15 C         139.2886  139.6702  167.4688 C.ar    1  UNL1        0.0877
     16 C         140.6549  140.0070  166.9496 C.ar    1  UNL1        0.1105
     17 N         140.9947  139.7510  165.5112 N.ar    1  UNL1       -0.2285
     18 C         138.9487  139.9262  168.9073 C.1     1  UNL1        0.1020
     19 N         138.6089  140.1821  170.3457 N.1     1  UNL1       -0.1908
     20 C         142.0074  137.6222  155.9617 C.3     1  UNL1        0.1063
     21 C         143.1106  136.6687  155.6099 C.3     1  UNL1        0.1483
     22 O         144.5413  137.1092  155.7047 O.3     1  UNL1       -0.3786
     23 H         145.1227  136.3779  155.4441 H       1  UNL1        0.2108
     24 C         143.4077  134.3733  157.5186 C.3     1  UNL1        0.0306
     25 C         142.9317  134.1270  156.1177 C.ar    1  UNL1       -0.0238
     26 C         142.7831  135.2746  155.1633 C.ar    1  UNL1        0.0015
     27 C         142.3070  135.0283  153.7624 C.ar    1  UNL1       -0.0020
     28 C         141.9795  133.6343  153.3158 C.ar    1  UNL1        0.0060
     29 C         142.1281  132.4867  154.2701 C.ar    1  UNL1        0.0748
     30 C         142.6042  132.7330  155.6711 C.ar    1  UNL1        0.0233
     31 C         142.6531  131.4135  156.3828 C.3     1  UNL1        0.2352
     32 O         142.2072  130.3516  155.4217 O.3     1  UNL1       -0.4404
     33 C         141.8828  131.0149  154.1160 C.2     1  UNL1        0.3413
     34 O         141.3981  130.3272  152.8742 O.2     1  UNL1       -0.2449
@<TRIPOS>BOND
     1    24    25    1
     2    25    26   ar
     3    26    21    1
     4    21    22    1
     5    21    20    1
     6    20     1    1
     7     1     2    1
     8     2     3    1
     9     3     4    1
    10     4     5    1
    11     5     6    1
    12     4     7    1
    13     7     8    1
    14     8     9    1
    15     9    12    1
    16    12    13   ar
    17    13    14   ar
    18    14    15   ar
    19    15    18    1
    20    18    19    3
    21    15    16   ar
    22    16    17   ar
    23     9    10    1
    24    10    11    1
    25    26    27   ar
    26    27    28   ar
    27    28    29   ar
    28    29    30   ar
    29    30    31    1
    30    31    32    1
    31    32    33    1
    32    33    34    2
    33    30    25   ar
    34     6     1    1
    35    17    12   ar
    36    33    29    1
    37    11     4    1
    38    22    23    1
@<TRIPOS>MOLECULE
*****
 34 38 0 0 0
SMALL
GASTEIGER

@<TRIPOS>ATOM
      1 N         144.5457  141.3493  163.2815 N.3     1  UNL1       -0.2704
      2 C         144.1651  139.9086  163.4535 C.3     1  UNL1        0.0722
      3 C         143.7684  139.0902  162.2607 C.3     1  UNL1        0.0175
      4 C         143.7523  139.7124  160.8960 C.3     1  UNL1        0.0060
      5 C         144.1329  141.1531  160.7240 C.3     1  UNL1        0.0175
      6 C         144.5295  141.9715  161.9168 C.3     1  UNL1        0.0722
      7 C         143.3717  138.2717  161.0679 C.3     1  UNL1        0.0216
      8 C         142.9751  137.4533  159.8751 C.3     1  UNL1        0.0922
      9 N         142.9590  138.0755  158.5103 N.pl3   1  UNL1       -0.2932
     10 C         143.3395  139.5162  158.3384 C.3     1  UNL1        0.0922
     11 C         143.7362  140.3347  159.5312 C.3     1  UNL1        0.0216
     12 C         142.5623  137.2570  157.3175 C.ar    1  UNL1        0.1317
     13 C         141.1396  137.2647  156.8422 C.ar    1  UNL1        0.0350
     14 C         140.7430  136.4462  155.6494 C.ar    1  UNL1        0.0147
     15 C         141.7690  135.6201  154.9320 C.ar    1  UNL1        0.0877
     16 C         143.1917  135.6124  155.4072 C.ar    1  UNL1        0.1105
     17 N         143.5883  136.4309  156.6000 N.ar    1  UNL1       -0.2285
     18 C         141.3723  134.8016  153.7391 C.1     1  UNL1        0.1020
     19 N         140.9756  133.9832  152.5463 N.1     1  UNL1       -0.1908
     20 C         144.9424  142.1678  164.4744 C.3     1  UNL1        0.1063
     21 C         143.8938  142.8744  165.2814 C.3     1  UNL1        0.1483
     22 O         144.1741  143.2573  166.7043 O.3     1  UNL1       -0.3786
     23 H         143.3977  143.7025  167.0783 H       1  UNL1        0.2108
     24 C         143.5838  145.3317  163.5887 C.3     1  UNL1        0.0306
     25 C         142.4099  144.4267  163.8191 C.ar    1  UNL1       -0.0238
     26 C         142.5649  143.1981  164.6654 C.ar    1  UNL1        0.0015
     27 C         141.3911  142.2931  164.8959 C.ar    1  UNL1       -0.0020
     28 C         140.0623  142.6168  164.2800 C.ar    1  UNL1        0.0060
     29 C         139.9073  143.8454  163.4337 C.ar    1  UNL1        0.0748
     30 C         141.0811  144.7504  163.2032 C.ar    1  UNL1        0.0233
     31 C         140.6290  145.8824  162.3291 C.3     1  UNL1        0.2352
     32 O         139.1758  145.6771  162.0193 O.3     1  UNL1       -0.4404
     33 C         138.7297  144.4182  162.7020 C.2     1  UNL1        0.3413
     34 O         137.3486  143.8344  162.6603 O.2     1  UNL1       -0.2449
@<TRIPOS>BOND
     1    24    25    1
     2    25    26   ar
     3    26    21    1
     4    21    22    1
     5    21    20    1
     6    20     1    1
     7     1     2    1
     8     2     3    1
     9     3     4    1
    10     4     5    1
    11     5     6    1
    12     4     7    1
    13     7     8    1
    14     8     9    1
    15     9    12    1
    16    12    13   ar
    17    13    14   ar
    18    14    15   ar
    19    15    18    1
    20    18    19    3
    21    15    16   ar
    22    16    17   ar
    23     9    10    1
    24    10    11    1
    25    26    27   ar
    26    27    28   ar
    27    28    29   ar
    28    29    30   ar
    29    30    31    1
    30    31    32    1
    31    32    33    1
    32    33    34    2
    33    30    25   ar
    34     6     1    1
    35    17    12   ar
    36    33    29    1
    37    11     4    1
    38    22    23    1
@<TRIPOS>MOLECULE
*****
 34 38 0 0 0
SMALL
GASTEIGER

@<TRIPOS>ATOM
      1 N         140.8853  145.0940  158.7183 N.3     1  UNL1       -0.2704
      2 C         141.3861  143.7045  158.9799 C.3     1  UNL1        0.0722
      3 C         141.2433  143.1005  160.3454 C.3     1  UNL1        0.0175
      4 C         140.5996  143.8860  161.4494 C.3     1  UNL1        0.0060
      5 C         140.0988  145.2754  161.1878 C.3     1  UNL1        0.0175
      6 C         140.2416  145.8795  159.8223 C.3     1  UNL1        0.0722
      7 C         141.1005  142.4964  161.7110 C.3     1  UNL1        0.0216
      8 C         140.9577  141.8924  163.0765 C.3     1  UNL1        0.0922
      9 N         140.3140  142.6779  164.1805 N.pl3   1  UNL1       -0.2932
     10 C         139.8131  144.0673  163.9189 C.3     1  UNL1        0.0922
     11 C         139.9559  144.6714  162.5533 C.3     1  UNL1        0.0216
     12 C         140.1712  142.0738  165.5461 C.ar    1  UNL1        0.1317
     13 C         140.6202  142.8391  166.7554 C.ar    1  UNL1        0.0350
     14 C         140.4773  142.2350  168.1209 C.ar    1  UNL1        0.0147
     15 C         139.8855  140.8656  168.2770 C.ar    1  UNL1        0.0877
     16 C         139.4366  140.1002  167.0677 C.ar    1  UNL1        0.1105
     17 N         139.5794  140.7043  165.7022 N.ar    1  UNL1       -0.2285
     18 C         139.7427  140.2615  169.6426 C.1     1  UNL1        0.1020
     19 N         139.5999  139.6574  171.0081 N.1     1  UNL1       -0.1908
     20 C         141.0281  145.6981  157.3527 C.3     1  UNL1        0.1063
     21 C         139.8090  145.9739  156.5234 C.3     1  UNL1        0.1483
     22 O         138.8845  144.8522  156.1528 O.3     1  UNL1       -0.3786
     23 H         138.1525  145.1994  155.6195 H       1  UNL1        0.2108
     24 C         140.7059  146.8816  153.8083 C.3     1  UNL1        0.0306
     25 C         139.9629  147.8251  154.7070 C.ar    1  UNL1       -0.0238
     26 C         139.5144  147.3713  156.0645 C.ar    1  UNL1        0.0015
     27 C         138.7714  148.3148  156.9632 C.ar    1  UNL1       -0.0020
     28 C         138.4768  149.7122  156.5044 C.ar    1  UNL1        0.0060
     29 C         138.9252  150.1660  155.1469 C.ar    1  UNL1        0.0748
     30 C         139.6683  149.2225  154.2482 C.ar    1  UNL1        0.0233
     31 C         139.9824  149.9475  152.9732 C.3     1  UNL1        0.2352
     32 O         139.4335  151.3391  153.0838 O.3     1  UNL1       -0.4404
     33 C         138.7801  151.4741  154.4273 C.2     1  UNL1        0.3413
     34 O         138.1009  152.7017  154.9580 O.2     1  UNL1       -0.2449
@<TRIPOS>BOND
     1    24    25    1
     2    25    26   ar
     3    26    21    1
     4    21    22    1
     5    21    20    1
     6    20     1    1
     7     1     2    1
     8     2     3    1
     9     3     4    1
    10     4     5    1
    11     5     6    1
    12     4     7    1
    13     7     8    1
    14     8     9    1
    15     9    12    1
    16    12    13   ar
    17    13    14   ar
    18    14    15   ar
    19    15    18    1
    20    18    19    3
    21    15    16   ar
    22    16    17   ar
    23     9    10    1
    24    10    11    1
    25    26    27   ar
    26    27    28   ar
    27    28    29   ar
    28    29    30   ar
    29    30    31    1
    30    31    32    1
    31    32    33    1
    32    33    34    2
    33    30    25   ar
    34     6     1    1
    35    17    12   ar
    36    33    29    1
    37    11     4    1
    38    22    23    1
@<TRIPOS>MOLECULE
*****
 34 38 0 0 0
SMALL
GASTEIGER

@<TRIPOS>ATOM
      1 N         144.7494  141.6521  163.1830 N.3     1  UNL1       -0.2704
      2 C         144.5852  142.2669  161.8247 C.3     1  UNL1        0.0722
      3 C         144.1417  141.4218  160.6676 C.3     1  UNL1        0.0175
      4 C         143.8624  139.9618  160.8687 C.3     1  UNL1        0.0060
      5 C         144.0266  139.3470  162.2269 C.3     1  UNL1        0.0175
      6 C         144.4701  140.1921  163.3841 C.3     1  UNL1        0.0722
      7 C         143.6982  140.5767  159.5103 C.3     1  UNL1        0.0216
      8 C         143.2547  139.7316  158.3531 C.3     1  UNL1        0.0922
      9 N         142.9754  138.2716  158.5542 N.pl3   1  UNL1       -0.2932
     10 C         143.1396  137.6567  159.9125 C.3     1  UNL1        0.0922
     11 C         143.5831  138.5019  161.0698 C.3     1  UNL1        0.0216
     12 C         142.5319  137.4265  157.3970 C.ar    1  UNL1        0.1317
     13 C         141.1039  137.4703  156.9401 C.ar    1  UNL1        0.0350
     14 C         140.6605  136.6252  155.7830 C.ar    1  UNL1        0.0147
     15 C         141.6451  135.7363  155.0826 C.ar    1  UNL1        0.0877
     16 C         143.0731  135.6926  155.5395 C.ar    1  UNL1        0.1105
     17 N         143.5165  136.5376  156.6966 N.ar    1  UNL1       -0.2285
     18 C         141.2016  134.8912  153.9253 C.1     1  UNL1        0.1020
     19 N         140.7580  134.0462  152.7682 N.1     1  UNL1       -0.1908
     20 C         145.1929  142.4972  164.3402 C.3     1  UNL1        0.1063
     21 C         144.1741  143.1724  165.2098 C.3     1  UNL1        0.1483
     22 O         144.5491  143.6287  166.5886 O.3     1  UNL1       -0.3786
     23 H         143.7807  144.0418  167.0126 H       1  UNL1        0.2108
     24 C         141.9918  141.2465  165.9368 C.3     1  UNL1        0.0306
     25 C         141.6891  142.4282  165.0641 C.ar    1  UNL1       -0.0238
     26 C         142.7802  143.3912  164.7005 C.ar    1  UNL1        0.0015
     27 C         142.4775  144.5730  163.8277 C.ar    1  UNL1       -0.0020
     28 C         141.0837  144.7918  163.3185 C.ar    1  UNL1        0.0060
     29 C         139.9926  143.8289  163.6820 C.ar    1  UNL1        0.0748
     30 C         140.2953  142.6471  164.5548 C.ar    1  UNL1        0.0233
     31 C         139.0243  141.8733  164.7445 C.3     1  UNL1        0.2352
     32 O         137.9361  142.5769  163.9890 O.3     1  UNL1       -0.4404
     33 C         138.5346  143.7855  163.3323 C.2     1  UNL1        0.3413
     34 O         137.8034  144.7767  162.4763 O.2     1  UNL1       -0.2449
@<TRIPOS>BOND
     1    24    25    1
     2    25    26   ar
     3    26    21    1
     4    21    22    1
     5    21    20    1
     6    20     1    1
     7     1     2    1
     8     2     3    1
     9     3     4    1
    10     4     5    1
    11     5     6    1
    12     4     7    1
    13     7     8    1
    14     8     9    1
    15     9    12    1
    16    12    13   ar
    17    13    14   ar
    18    14    15   ar
    19    15    18    1
    20    18    19    3
    21    15    16   ar
    22    16    17   ar
    23     9    10    1
    24    10    11    1
    25    26    27   ar
    26    27    28   ar
    27    28    29   ar
    28    29    30   ar
    29    30    31    1
    30    31    32    1
    31    32    33    1
    32    33    34    2
    33    30    25   ar
    34     6     1    1
    35    17    12   ar
    36    33    29    1
    37    11     4    1
    38    22    23    1
@<TRIPOS>MOLECULE
*****
 34 38 0 0 0
SMALL
GASTEIGER

@<TRIPOS>ATOM
      1 N         140.6267  138.9642  164.1491 N.3     1  UNL1       -0.2704
      2 C         141.4840  139.6702  163.1409 C.3     1  UNL1        0.0722
      3 C         140.8960  140.1099  161.8329 C.3     1  UNL1        0.0175
      4 C         139.4505  139.8438  161.5332 C.3     1  UNL1        0.0060
      5 C         138.5931  139.1379  162.5415 C.3     1  UNL1        0.0175
      6 C         139.1812  138.6981  163.8494 C.3     1  UNL1        0.0722
      7 C         140.3079  140.5498  160.5249 C.3     1  UNL1        0.0216
      8 C         139.7198  140.9895  159.2170 C.3     1  UNL1        0.0922
      9 N         138.2743  140.7234  158.9173 N.pl3   1  UNL1       -0.2932
     10 C         137.4170  140.0175  159.9255 C.3     1  UNL1        0.0922
     11 C         138.0050  139.5777  161.2336 C.3     1  UNL1        0.0216
     12 C         137.6862  141.1632  157.6093 C.ar    1  UNL1        0.1317
     13 C         137.7118  142.6129  157.2252 C.ar    1  UNL1        0.0350
     14 C         137.1237  143.0527  155.9172 C.ar    1  UNL1        0.0147
     15 C         136.5101  142.0427  154.9934 C.ar    1  UNL1        0.0877
     16 C         136.4846  140.5930  155.3776 C.ar    1  UNL1        0.1105
     17 N         137.0726  140.1532  156.6855 N.ar    1  UNL1       -0.2285
     18 C         135.9220  142.4825  153.6854 C.1     1  UNL1        0.1020
     19 N         135.3339  142.9223  152.3775 N.1     1  UNL1       -0.1908
     20 C         141.2148  138.5244  165.4571 C.3     1  UNL1        0.1063
     21 C         142.2155  139.3934  166.1595 C.3     1  UNL1        0.1483
     22 O         143.6773  139.2504  165.8553 O.3     1  UNL1       -0.3786
     23 H         144.1824  139.8817  166.3913 H       1  UNL1        0.2108
     24 C         142.6298  138.8926  169.0882 C.3     1  UNL1        0.0306
     25 C         141.9615  140.1550  168.6304 C.ar    1  UNL1       -0.0238
     26 C         141.7544  140.4055  167.1661 C.ar    1  UNL1        0.0015
     27 C         141.0861  141.6679  166.7083 C.ar    1  UNL1       -0.0020
     28 C         140.6250  142.6800  167.7148 C.ar    1  UNL1        0.0060
     29 C         140.8322  142.4295  169.1791 C.ar    1  UNL1        0.0748
     30 C         141.5004  141.1671  169.6369 C.ar    1  UNL1        0.0233
     31 C         141.5674  141.1952  171.1352 C.3     1  UNL1        0.2352
     32 O         140.9406  142.4750  171.6033 O.3     1  UNL1       -0.4404
     33 C         140.4862  143.2379  170.3944 C.2     1  UNL1        0.3413
     34 O         139.8053  144.5744  170.3998 O.2     1  UNL1       -0.2449
@<TRIPOS>BOND
     1    24    25    1
     2    25    26   ar
     3    26    21    1
     4    21    22    1
     5    21    20    1
     6    20     1    1
     7     1     2    1
     8     2     3    1
     9     3     4    1
    10     4     5    1
    11     5     6    1
    12     4     7    1
    13     7     8    1
    14     8     9    1
    15     9    12    1
    16    12    13   ar
    17    13    14   ar
    18    14    15   ar
    19    15    18    1
    20    18    19    3
    21    15    16   ar
    22    16    17   ar
    23     9    10    1
    24    10    11    1
    25    26    27   ar
    26    27    28   ar
    27    28    29   ar
    28    29    30   ar
    29    30    31    1
    30    31    32    1
    31    32    33    1
    32    33    34    2
    33    30    25   ar
    34     6     1    1
    35    17    12   ar
    36    33    29    1
    37    11     4    1
    38    22    23    1
@<TRIPOS>MOLECULE
*****
 34 38 0 0 0
SMALL
GASTEIGER

@<TRIPOS>ATOM
      1 N         142.2531  142.4821  163.3842 N.3     1  UNL1       -0.2704
      2 C         140.7654  142.4437  163.5720 C.3     1  UNL1        0.0722
      3 C         139.8612  142.3489  162.3790 C.3     1  UNL1        0.0175
      4 C         140.4446  142.2925  160.9982 C.3     1  UNL1        0.0060
      5 C         141.9323  142.3309  160.8105 C.3     1  UNL1        0.0175
      6 C         142.8365  142.4257  162.0035 C.3     1  UNL1        0.0722
      7 C         138.9568  142.2541  161.1859 C.3     1  UNL1        0.0216
      8 C         138.0526  142.1593  159.9929 C.3     1  UNL1        0.0922
      9 N         138.6360  142.1029  158.6122 N.pl3   1  UNL1       -0.2932
     10 C         140.1237  142.1413  158.4245 C.3     1  UNL1        0.0922
     11 C         141.0280  142.2361  159.6175 C.3     1  UNL1        0.0216
     12 C         137.7317  142.0081  157.4191 C.ar    1  UNL1        0.1317
     13 C         137.6740  143.1346  156.4304 C.ar    1  UNL1        0.0350
     14 C         136.7697  143.0397  155.2374 C.ar    1  UNL1        0.0147
     15 C         135.9231  141.8184  155.0332 C.ar    1  UNL1        0.0877
     16 C         135.9808  140.6920  156.0220 C.ar    1  UNL1        0.1105
     17 N         136.8851  140.7868  157.2150 N.ar    1  UNL1       -0.2285
     18 C         135.0187  141.7236  153.8402 C.1     1  UNL1        0.1020
     19 N         134.1144  141.6288  152.6472 N.1     1  UNL1       -0.1908
     20 C         143.1574  142.5769  164.5773 C.3     1  UNL1        0.1063
     21 C         143.2589  141.4268  165.5348 C.3     1  UNL1        0.1483
     22 O         144.0245  140.1956  165.1498 O.3     1  UNL1       -0.3786
     23 H         143.9914  139.5539  165.8765 H       1  UNL1        0.2108
     24 C         140.7330  139.8935  166.0536 C.3     1  UNL1        0.0306
     25 C         141.3317  140.7411  167.1367 C.ar    1  UNL1       -0.0238
     26 C         142.5946  141.5077  166.8773 C.ar    1  UNL1        0.0015
     27 C         143.1934  142.3553  167.9604 C.ar    1  UNL1       -0.0020
     28 C         142.5292  142.4363  169.3029 C.ar    1  UNL1        0.0060
     29 C         141.2663  141.6697  169.5623 C.ar    1  UNL1        0.0748
     30 C         140.6676  140.8221  168.4792 C.ar    1  UNL1        0.0233
     31 C         139.4244  140.1837  169.0241 C.3     1  UNL1        0.2352
     32 O         139.2548  140.6367  170.4440 O.3     1  UNL1       -0.4404
     33 C         140.3932  141.5551  170.7766 C.2     1  UNL1        0.3413
     34 O         140.6188  142.2389  172.0924 O.2     1  UNL1       -0.2449
@<TRIPOS>BOND
     1    24    25    1
     2    25    26   ar
     3    26    21    1
     4    21    22    1
     5    21    20    1
     6    20     1    1
     7     1     2    1
     8     2     3    1
     9     3     4    1
    10     4     5    1
    11     5     6    1
    12     4     7    1
    13     7     8    1
    14     8     9    1
    15     9    12    1
    16    12    13   ar
    17    13    14   ar
    18    14    15   ar
    19    15    18    1
    20    18    19    3
    21    15    16   ar
    22    16    17   ar
    23     9    10    1
    24    10    11    1
    25    26    27   ar
    26    27    28   ar
    27    28    29   ar
    28    29    30   ar
    29    30    31    1
    30    31    32    1
    31    32    33    1
    32    33    34    2
    33    30    25   ar
    34     6     1    1
    35    17    12   ar
    36    33    29    1
    37    11     4    1
    38    22    23    1
