@<TRIPOS>MOLECULE
*****
 21 23 0 0 0
SMALL
GASTEIGER

@<TRIPOS>ATOM
      1 C         138.1770  144.5374  165.0289 C.3     1  UNL1        0.0260
      2 C         138.6151  143.1321  164.7403 C.2     1  UNL1       -0.0482
      3 C         137.7060  142.5702  163.6879 C.2     1  UNL1       -0.0345
      4 C         137.4149  141.3543  162.8590 C.3     1  UNL1        0.0279
      5 C         137.8530  139.9490  162.5704 C.3     1  UNL1        0.0344
      6 C         138.8529  138.8911  162.9323 C.3     1  UNL1        0.1216
      7 C         138.0279  138.1967  161.8896 C.3     1  UNL1        0.0323
      8 O         139.5098  137.5445  162.8606 O.3     1  UNL1       -0.3524
      9 C         140.0328  138.5846  163.8064 C.3     1  UNL1        0.1794
     10 C         140.9418  139.1466  164.8589 C.3     1  UNL1        0.1985
     11 O         141.9418  138.0887  165.2208 O.3     1  UNL1       -0.4496
     12 C         142.8508  138.6507  166.2733 C.2     1  UNL1        0.3179
     13 O         143.9968  137.9335  166.9231 O.2     1  UNL1       -0.2501
     14 C         142.4128  140.0560  166.5619 C.3     1  UNL1        0.1185
     15 C         141.2329  140.3625  165.6878 C.3     1  UNL1        0.0550
     16 C         140.7948  141.7678  165.9763 C.3     1  UNL1        0.0086
     17 C         139.7949  142.8256  165.6144 C.3     1  UNL1        0.0218
     18 C         143.0437  140.9907  167.5509 C.3     1  UNL1        0.0834
     19 N         142.7154  140.8722  169.0098 N.3     1  UNL1       -0.2698
     20 C         141.6957  139.8731  169.4703 C.3     1  UNL1        0.0897
     21 C         143.4068  141.7527  170.0081 C.3     1  UNL1        0.0897
@<TRIPOS>BOND
     1     1     2    1
     2     2     3    2
     3     3     4    1
     4     4     5    1
     5     5     6    1
     6     6     7    1
     7     6     8    1
     8     9     8    1
     9     9    10    1
    10    10    11    1
    11    11    12    1
    12    12    13    2
    13    12    14    1
    14    14    18    1
    15    18    19    1
    16    19    20    1
    17    19    21    1
    18    14    15    1
    19    15    16    1
    20    16    17    1
    21    17     2    1
    22     9     6    1
    23    15    10    1
@<TRIPOS>MOLECULE
*****
 21 23 0 0 0
SMALL
GASTEIGER

@<TRIPOS>ATOM
      1 C         143.5594  142.2611  169.5628 C.3     1  UNL1        0.0260
      2 C         142.5893  141.7754  168.5269 C.2     1  UNL1       -0.0482
      3 C         141.5222  140.9859  169.2252 C.2     1  UNL1       -0.0345
      4 C         140.2631  140.1977  169.0166 C.3     1  UNL1        0.0279
      5 C         139.2930  139.7121  167.9806 C.3     1  UNL1        0.0344
      6 C         138.9825  139.7144  166.5132 C.3     1  UNL1        0.1216
      7 C         137.8508  138.9026  167.0701 C.3     1  UNL1        0.0323
      8 O         138.2014  139.3792  165.2772 O.3     1  UNL1       -0.3524
      9 C         139.4501  140.2038  165.1746 C.3     1  UNL1        0.1794
     10 C         140.5173  140.9934  164.4763 C.3     1  UNL1        0.1985
     11 O         140.2068  140.9958  163.0087 O.3     1  UNL1       -0.4496
     12 C         141.2740  141.7854  162.3104 C.2     1  UNL1        0.3179
     13 O         141.3567  142.0439  160.8352 O.2     1  UNL1       -0.2501
     14 C         142.2441  142.2710  163.3463 C.3     1  UNL1        0.1185
     15 C         141.7765  141.7816  164.6849 C.3     1  UNL1        0.0550
     16 C         142.7465  142.2672  165.7209 C.3     1  UNL1        0.0086
     17 C         143.0570  142.2648  167.1883 C.3     1  UNL1        0.0218
     18 C         143.4671  143.1005  163.0889 C.3     1  UNL1        0.0834
     19 N         144.6735  142.4794  162.4495 N.3     1  UNL1       -0.2698
     20 C         144.8561  142.5538  160.9625 C.3     1  UNL1        0.0897
     21 C         145.6973  141.7840  163.2969 C.3     1  UNL1        0.0897
@<TRIPOS>BOND
     1     1     2    1
     2     2     3    2
     3     3     4    1
     4     4     5    1
     5     5     6    1
     6     6     7    1
     7     6     8    1
     8     9     8    1
     9     9    10    1
    10    10    11    1
    11    11    12    1
    12    12    13    2
    13    12    14    1
    14    14    18    1
    15    18    19    1
    16    19    20    1
    17    19    21    1
    18    14    15    1
    19    15    16    1
    20    16    17    1
    21    17     2    1
    22     9     6    1
    23    15    10    1
@<TRIPOS>MOLECULE
*****
 21 23 0 0 0
SMALL
GASTEIGER

@<TRIPOS>ATOM
      1 C         137.8277  138.7147  166.9020 C.3     1  UNL1        0.0260
      2 C         139.0836  139.5241  167.0340 C.2     1  UNL1       -0.0482
      3 C         139.2228  139.9328  168.4705 C.2     1  UNL1       -0.0345
      4 C         140.0850  140.6857  169.4399 C.3     1  UNL1        0.0279
      5 C         141.3410  141.4952  169.5718 C.3     1  UNL1        0.0344
      6 C         142.5109  142.0521  168.8160 C.3     1  UNL1        0.1216
      7 C         142.7826  142.5336  170.2104 C.3     1  UNL1        0.0323
      8 O         143.7937  142.8091  168.6400 O.3     1  UNL1       -0.3524
      9 C         143.1478  142.1436  167.4611 C.3     1  UNL1        0.1794
     10 C         143.0086  141.7349  166.0246 C.3     1  UNL1        0.1985
     11 O         144.1785  142.2917  165.2687 O.3     1  UNL1       -0.4496
     12 C         144.0393  141.8830  163.8322 C.2     1  UNL1        0.3179
     13 O         144.9892  142.2239  162.7225 O.2     1  UNL1       -0.2501
     14 C         142.7833  141.0735  163.7002 C.3     1  UNL1        0.1185
     15 C         142.1464  140.9820  165.0551 C.3     1  UNL1        0.0550
     16 C         140.8904  140.1725  164.9232 C.3     1  UNL1        0.0086
     17 C         139.7206  139.6157  165.6791 C.3     1  UNL1        0.0218
     18 C         142.2568  140.4628  162.4354 C.3     1  UNL1        0.0834
     19 N         142.8690  139.2026  161.8997 N.3     1  UNL1       -0.2698
     20 C         143.9800  139.2768  160.8945 C.3     1  UNL1        0.0897
     21 C         142.3703  137.8681  162.3690 C.3     1  UNL1        0.0897
@<TRIPOS>BOND
     1     1     2    1
     2     2     3    2
     3     3     4    1
     4     4     5    1
     5     5     6    1
     6     6     7    1
     7     6     8    1
     8     9     8    1
     9     9    10    1
    10    10    11    1
    11    11    12    1
    12    12    13    2
    13    12    14    1
    14    14    18    1
    15    18    19    1
    16    19    20    1
    17    19    21    1
    18    14    15    1
    19    15    16    1
    20    16    17    1
    21    17     2    1
    22     9     6    1
    23    15    10    1
@<TRIPOS>MOLECULE
*****
 21 23 0 0 0
SMALL
GASTEIGER

@<TRIPOS>ATOM
      1 C         143.4823  143.3376  164.1670 C.3     1  UNL1        0.0260
      2 C         142.4699  142.2940  164.5357 C.2     1  UNL1       -0.0482
      3 C         142.2029  141.4573  163.3198 C.2     1  UNL1       -0.0345
      4 C         141.4121  140.2952  162.7961 C.3     1  UNL1        0.0279
      5 C         140.3996  139.2516  163.1649 C.3     1  UNL1        0.0344
      6 C         139.5522  138.7252  164.2850 C.3     1  UNL1        0.1216
      7 C         139.1844  137.8067  163.1576 C.3     1  UNL1        0.0323
      8 O         138.5520  137.8169  164.9364 O.3     1  UNL1       -0.3524
      9 C         139.1936  138.9170  165.7289 C.3     1  UNL1        0.1794
     10 C         139.4607  139.7538  166.9448 C.3     1  UNL1        0.1985
     11 O         138.6133  139.2274  168.0650 O.3     1  UNL1       -0.4496
     12 C         138.8804  140.0642  169.2809 C.2     1  UNL1        0.3179
     13 O         138.2463  139.8883  170.6289 O.2     1  UNL1       -0.2501
     14 C         139.8928  141.1077  168.9122 C.3     1  UNL1        0.1185
     15 C         140.2514  140.9159  167.4684 C.3     1  UNL1        0.0550
     16 C         141.2639  141.9595  167.0996 C.3     1  UNL1        0.0086
     17 C         142.1112  142.4858  165.9795 C.3     1  UNL1        0.0218
     18 C         140.4489  142.1586  169.8267 C.3     1  UNL1        0.0834
     19 N         141.8067  141.9783  170.4382 N.3     1  UNL1       -0.2698
     20 C         142.2147  140.6393  170.9773 C.3     1  UNL1        0.0897
     21 C         142.7565  143.1370  170.5107 C.3     1  UNL1        0.0897
@<TRIPOS>BOND
     1     1     2    1
     2     2     3    2
     3     3     4    1
     4     4     5    1
     5     5     6    1
     6     6     7    1
     7     6     8    1
     8     9     8    1
     9     9    10    1
    10    10    11    1
    11    11    12    1
    12    12    13    2
    13    12    14    1
    14    14    18    1
    15    18    19    1
    16    19    20    1
    17    19    21    1
    18    14    15    1
    19    15    16    1
    20    16    17    1
    21    17     2    1
    22     9     6    1
    23    15    10    1
@<TRIPOS>MOLECULE
*****
 21 23 0 0 0
SMALL
GASTEIGER

@<TRIPOS>ATOM
      1 C         144.4688  143.2888  165.4398 C.3     1  UNL1        0.0260
      2 C         143.2650  142.4500  165.7521 C.2     1  UNL1       -0.0482
      3 C         143.0491  142.4836  167.2360 C.2     1  UNL1       -0.0345
      4 C         142.1716  141.9859  168.3462 C.3     1  UNL1        0.0279
      5 C         140.9679  141.1471  168.6584 C.3     1  UNL1        0.0344
      6 C         139.8976  140.2876  168.0536 C.3     1  UNL1        0.1216
      7 C         139.5578  140.2277  169.5134 C.3     1  UNL1        0.0323
      8 O         138.6862  139.4032  168.0557 O.3     1  UNL1       -0.3524
      9 C         139.3697  139.7357  166.7626 C.3     1  UNL1        0.1794
     10 C         139.5857  139.7022  165.2786 C.3     1  UNL1        0.1985
     11 O         138.5155  138.8427  164.6737 O.3     1  UNL1       -0.4496
     12 C         138.7315  138.8091  163.1897 C.2     1  UNL1        0.3179
     13 O         137.8913  138.0671  162.1930 O.2     1  UNL1       -0.2501
     14 C         139.9352  139.6479  162.8774 C.3     1  UNL1        0.1185
     15 C         140.4632  140.1998  164.1684 C.3     1  UNL1        0.0550
     16 C         141.6669  141.0386  163.8562 C.3     1  UNL1        0.0086
     17 C         142.7371  141.8981  164.4611 C.3     1  UNL1        0.0218
     18 C         140.5101  139.8919  161.5137 C.3     1  UNL1        0.0834
     19 N         141.2478  138.7957  160.8036 N.3     1  UNL1       -0.2698
     20 C         142.1297  137.8614  161.5778 C.3     1  UNL1        0.0897
     21 C         141.1036  138.6338  159.3194 C.3     1  UNL1        0.0897
@<TRIPOS>BOND
     1     1     2    1
     2     2     3    2
     3     3     4    1
     4     4     5    1
     5     5     6    1
     6     6     7    1
     7     6     8    1
     8     9     8    1
     9     9    10    1
    10    10    11    1
    11    11    12    1
    12    12    13    2
    13    12    14    1
    14    14    18    1
    15    18    19    1
    16    19    20    1
    17    19    21    1
    18    14    15    1
    19    15    16    1
    20    16    17    1
    21    17     2    1
    22     9     6    1
    23    15    10    1
@<TRIPOS>MOLECULE
*****
 21 23 0 0 0
SMALL
GASTEIGER

@<TRIPOS>ATOM
      1 C         139.3241  138.0188  162.7332 C.3     1  UNL1        0.0260
      2 C         139.7603  138.8113  163.9298 C.2     1  UNL1       -0.0482
      3 C         138.8291  138.4923  165.0615 C.2     1  UNL1       -0.0345
      4 C         138.5230  138.7850  166.5005 C.3     1  UNL1        0.0279
      5 C         138.9593  139.5774  167.6971 C.3     1  UNL1        0.0344
      6 C         139.9711  140.5670  168.1942 C.3     1  UNL1        0.1216
      7 C         139.1245  140.3477  169.4129 C.3     1  UNL1        0.0323
      8 O         140.6309  141.4653  169.1980 O.3     1  UNL1       -0.3524
      9 C         141.1720  141.3756  167.8019 C.3     1  UNL1        0.1794
     10 C         142.1033  141.6945  166.6701 C.3     1  UNL1        0.1985
     11 O         143.1152  142.6841  167.1671 O.3     1  UNL1       -0.4496
     12 C         144.0465  143.0029  166.0353 C.2     1  UNL1        0.3179
     13 O         145.2098  143.9483  166.0904 O.2     1  UNL1       -0.2501
     14 C         143.6103  142.2105  164.8387 C.3     1  UNL1        0.1185
     15 C         142.4093  141.4019  165.2310 C.3     1  UNL1        0.0550
     16 C         141.9730  140.6094  164.0345 C.3     1  UNL1        0.0086
     17 C         140.9612  139.6199  163.5375 C.3     1  UNL1        0.0218
     18 C         144.2607  142.2243  163.4872 C.3     1  UNL1        0.0834
     19 N         143.9015  143.2884  162.4929 N.3     1  UNL1       -0.2698
     20 C         143.8796  144.7288  162.9108 C.3     1  UNL1        0.0897
     21 C         143.5641  142.9120  161.0806 C.3     1  UNL1        0.0897
@<TRIPOS>BOND
     1     1     2    1
     2     2     3    2
     3     3     4    1
     4     4     5    1
     5     5     6    1
     6     6     7    1
     7     6     8    1
     8     9     8    1
     9     9    10    1
    10    10    11    1
    11    11    12    1
    12    12    13    2
    13    12    14    1
    14    14    18    1
    15    18    19    1
    16    19    20    1
    17    19    21    1
    18    14    15    1
    19    15    16    1
    20    16    17    1
    21    17     2    1
    22     9     6    1
    23    15    10    1
@<TRIPOS>MOLECULE
*****
 21 23 0 0 0
SMALL
GASTEIGER

@<TRIPOS>ATOM
      1 C         138.0082  138.9706  165.7885 C.3     1  UNL1        0.0260
      2 C         139.2175  139.8072  166.0843 C.2     1  UNL1       -0.0482
      3 C         139.5433  139.6526  167.5402 C.2     1  UNL1       -0.0345
      4 C         140.4921  140.0741  168.6229 C.3     1  UNL1        0.0279
      5 C         141.7014  140.9108  168.9186 C.3     1  UNL1        0.0344
      6 C         142.7094  141.8431  168.3146 C.3     1  UNL1        0.1216
      7 C         143.1553  141.7865  169.7457 C.3     1  UNL1        0.0323
      8 O         143.9028  142.7517  168.3056 O.3     1  UNL1       -0.3524
      9 C         143.1310  142.5148  167.0414 C.3     1  UNL1        0.1794
     10 C         142.8052  142.6694  165.5854 C.3     1  UNL1        0.1985
     11 O         143.8132  143.6017  164.9813 O.3     1  UNL1       -0.4496
     12 C         143.4873  143.7563  163.5253 C.2     1  UNL1        0.3179
     13 O         144.2389  144.5995  162.5383 O.2     1  UNL1       -0.2501
     14 C         142.2780  142.9196  163.2295 C.3     1  UNL1        0.1185
     15 C         141.8564  142.2479  164.5027 C.3     1  UNL1        0.0550
     16 C         140.6470  141.4112  164.2070 C.3     1  UNL1        0.0086
     17 C         139.6391  140.4790  164.8111 C.3     1  UNL1        0.0218
     18 C         141.6079  142.7793  161.8949 C.3     1  UNL1        0.0834
     19 N         140.6261  143.8163  161.4359 N.3     1  UNL1       -0.2698
     20 C         140.2573  144.9532  162.3423 C.3     1  UNL1        0.0897
     21 C         140.0131  143.7165  160.0706 C.3     1  UNL1        0.0897
@<TRIPOS>BOND
     1     1     2    1
     2     2     3    2
     3     3     4    1
     4     4     5    1
     5     5     6    1
     6     6     7    1
     7     6     8    1
     8     9     8    1
     9     9    10    1
    10    10    11    1
    11    11    12    1
    12    12    13    2
    13    12    14    1
    14    14    18    1
    15    18    19    1
    16    19    20    1
    17    19    21    1
    18    14    15    1
    19    15    16    1
    20    16    17    1
    21    17     2    1
    22     9     6    1
    23    15    10    1
@<TRIPOS>MOLECULE
*****
 21 23 0 0 0
SMALL
GASTEIGER

@<TRIPOS>ATOM
      1 C         143.6389  144.9411  164.0139 C.3     1  UNL1        0.0260
      2 C         142.4234  144.1103  163.7268 C.2     1  UNL1       -0.0482
      3 C         141.9524  144.4411  162.3417 C.2     1  UNL1       -0.0345
      4 C         140.9100  144.1322  161.3082 C.3     1  UNL1        0.0279
      5 C         139.6945  143.3013  161.0213 C.3     1  UNL1        0.0344
      6 C         138.7701  142.2661  161.5903 C.3     1  UNL1        0.1216
      7 C         138.1840  142.4925  160.2283 C.3     1  UNL1        0.0323
      8 O         137.6021  141.3251  161.5931 O.3     1  UNL1       -0.3524
      9 C         138.4900  141.4219  162.7981 C.3     1  UNL1        0.1794
     10 C         138.9610  141.0911  164.1833 C.3     1  UNL1        0.1985
     11 O         138.0366  140.0559  164.7524 O.3     1  UNL1       -0.4496
     12 C         138.5077  139.7251  166.1376 C.2     1  UNL1        0.3179
     13 O         137.8744  138.7370  167.0718 O.2     1  UNL1       -0.2501
     14 C         139.7232  140.5559  166.4246 C.3     1  UNL1        0.1185
     15 C         140.0034  141.4001  165.2168 C.3     1  UNL1        0.0550
     16 C         141.2189  142.2309  165.5038 C.3     1  UNL1        0.0086
     17 C         142.1432  143.2661  164.9347 C.3     1  UNL1        0.0218
     18 C         140.5188  140.5445  167.6961 C.3     1  UNL1        0.0834
     19 N         140.0177  141.2840  168.9011 N.3     1  UNL1       -0.2698
     20 C         140.4187  142.7119  169.1252 C.3     1  UNL1        0.0897
     21 C         139.1154  140.5957  169.8819 C.3     1  UNL1        0.0897
@<TRIPOS>BOND
     1     1     2    1
     2     2     3    2
     3     3     4    1
     4     4     5    1
     5     5     6    1
     6     6     7    1
     7     6     8    1
     8     9     8    1
     9     9    10    1
    10    10    11    1
    11    11    12    1
    12    12    13    2
    13    12    14    1
    14    14    18    1
    15    18    19    1
    16    19    20    1
    17    19    21    1
    18    14    15    1
    19    15    16    1
    20    16    17    1
    21    17     2    1
    22     9     6    1
    23    15    10    1
@<TRIPOS>MOLECULE
*****
 21 23 0 0 0
SMALL
GASTEIGER

@<TRIPOS>ATOM
      1 C         139.1288  144.5113  165.2034 C.3     1  UNL1        0.0260
      2 C         139.9934  143.3141  165.4661 C.2     1  UNL1       -0.0482
      3 C         140.0758  143.1187  166.9510 C.2     1  UNL1       -0.0345
      4 C         140.6611  142.2581  168.0312 C.3     1  UNL1        0.0279
      5 C         141.5257  141.0608  168.2938 C.3     1  UNL1        0.0344
      6 C         142.3395  139.9843  167.6388 C.3     1  UNL1        0.1216
      7 C         142.5136  139.6650  169.0940 C.3     1  UNL1        0.0323
      8 O         143.2256  138.7751  167.5889 O.3     1  UNL1       -0.3524
      9 C         142.7914  139.4397  166.3162 C.3     1  UNL1        0.1794
     10 C         142.7090  139.6352  164.8313 C.3     1  UNL1        0.1985
     11 O         143.5227  138.5586  164.1762 O.3     1  UNL1       -0.4496
     12 C         143.4403  138.7541  162.6913 C.2     1  UNL1        0.3179
     13 O         144.1057  137.9019  161.6516 O.2     1  UNL1       -0.2501
     14 C         142.5757  139.9513  162.4286 C.3     1  UNL1        0.1185
     15 C         142.1237  140.4959  163.7511 C.3     1  UNL1        0.0550
     16 C         141.2590  141.6931  163.4885 C.3     1  UNL1        0.0086
     17 C         140.4454  142.7696  164.1435 C.3     1  UNL1        0.0218
     18 C         142.2246  140.5065  161.0801 C.3     1  UNL1        0.0834
     19 N         143.2823  141.1567  160.2383 N.3     1  UNL1       -0.2698
     20 C         143.8193  142.5049  160.6177 C.3     1  UNL1        0.0897
     21 C         143.8030  140.4586  159.0170 C.3     1  UNL1        0.0897
@<TRIPOS>BOND
     1     1     2    1
     2     2     3    2
     3     3     4    1
     4     4     5    1
     5     5     6    1
     6     6     7    1
     7     6     8    1
     8     9     8    1
     9     9    10    1
    10    10    11    1
    11    11    12    1
    12    12    13    2
    13    12    14    1
    14    14    18    1
    15    18    19    1
    16    19    20    1
    17    19    21    1
    18    14    15    1
    19    15    16    1
    20    16    17    1
    21    17     2    1
    22     9     6    1
    23    15    10    1
