@<TRIPOS>MOLECULE
*****
 35 38 0 0 0
SMALL
GASTEIGER

@<TRIPOS>ATOM
      1 C         141.5629  143.5807  161.9643 C.3     1  UNL1        0.1752
      2 C         141.9022  143.8837  160.5349 C.ar    1  UNL1        0.0089
      3 C         142.8587  143.2435  159.5731 C.ar    1  UNL1       -0.0021
      4 C         142.9865  143.7757  158.1765 C.ar    1  UNL1       -0.0003
      5 C         142.1578  144.9480  157.7418 C.ar    1  UNL1        0.0001
      6 C         141.2013  145.5881  158.7037 C.ar    1  UNL1        0.0043
      7 C         141.0735  145.0560  160.1003 C.ar    1  UNL1        0.0516
      8 C         140.2220  145.4775  161.2610 C.2     1  UNL1        0.2494
      9 O         139.2404  146.6117  161.2684 O.2     1  UNL1       -0.2699
     10 N         140.5245  144.5657  162.4131 N.am    1  UNL1       -0.2623
     11 O         141.5536  141.1123  162.7747 O.2     1  UNL1       -0.2729
     12 C         142.1576  142.4850  162.7985 C.2     1  UNL1        0.2452
     13 N         143.3564  142.7621  163.6565 N.am    1  UNL1       -0.2988
     14 H         143.7529  143.6632  163.6722 H       1  UNL1        0.1498
     15 C         143.9511  141.6665  164.4907 C.3     1  UNL1        0.1164
     16 C         143.2485  141.2039  165.7325 C.ar    1  UNL1       -0.0024
     17 C         143.1029  139.7369  166.0097 C.ar    1  UNL1        0.0005
     18 C         142.4002  139.2745  167.2516 C.ar    1  UNL1        0.0369
     19 C         141.8431  140.2789  168.2164 C.ar    1  UNL1        0.1468
     20 C         141.9887  141.7458  167.9393 C.ar    1  UNL1        0.0369
     21 C         142.6914  142.2084  166.6973 C.ar    1  UNL1        0.0005
     22 O         141.1404  139.8163  169.4583 O.3     1  UNL1       -0.4045
     23 C         139.7721  140.3374  169.7841 C.3     1  UNL1        0.5753
     24 F         138.4038  140.8585  170.1100 F       1  UNL1       -0.1328
     25 F         140.3035  140.9407  171.0505 F       1  UNL1       -0.1328
     26 F         139.2408  139.7341  168.5178 F       1  UNL1       -0.1328
     27 C         139.8984  144.6281  163.7747 C.3     1  UNL1        0.1417
     28 C         138.4157  144.4600  163.9269 C.3     1  UNL1        0.2285
     29 O         137.8701  143.3627  164.7919 O.3     1  UNL1       -0.4583
     30 C         138.2155  141.9331  164.4967 C.ar    1  UNL1        0.2249
     31 C         139.0740  141.1566  165.4507 C.ar    1  UNL1        0.0577
     32 C         139.4194  139.7270  165.1555 C.ar    1  UNL1        0.0064
     33 C         138.9063  139.0739  163.9064 C.ar    1  UNL1        0.0209
     34 C         138.0477  139.8505  162.9525 C.ar    1  UNL1        0.1021
     35 N         137.7024  141.2800  163.2476 N.ar    1  UNL1       -0.2101
@<TRIPOS>BOND
     1    11    12    2
     2    12    13   am
     3    13    15    1
     4    15    16    1
     5    16    17   ar
     6    17    18   ar
     7    18    19   ar
     8    19    22    1
     9    22    23    1
    10    23    24    1
    11    23    25    1
    12    23    26    1
    13    19    20   ar
    14    20    21   ar
    15    12     1    1
    16     1     2    1
    17     2     3   ar
    18     3     4   ar
    19     4     5   ar
    20     5     6   ar
    21     6     7   ar
    22     7     8    1
    23     8     9    2
    24     8    10   am
    25    10    27    1
    26    27    28    1
    27    28    29    1
    28    29    30    1
    29    30    31   ar
    30    31    32   ar
    31    32    33   ar
    32    33    34   ar
    33    34    35   ar
    34    21    16   ar
    35    10     1    1
    36    35    30   ar
    37     7     2   ar
    38    13    14    1
@<TRIPOS>MOLECULE
*****
 35 38 0 0 0
SMALL
GASTEIGER

@<TRIPOS>ATOM
      1 C         142.1894  143.8036  162.0127 C.3     1  UNL1        0.1752
      2 C         142.3091  143.8882  160.5199 C.ar    1  UNL1        0.0089
      3 C         143.2317  143.2154  159.5472 C.ar    1  UNL1       -0.0021
      4 C         143.1130  143.5023  158.0797 C.ar    1  UNL1       -0.0003
      5 C         142.0718  144.4620  157.5849 C.ar    1  UNL1        0.0001
      6 C         141.1492  145.1348  158.5576 C.ar    1  UNL1        0.0043
      7 C         141.2678  144.8479  160.0251 C.ar    1  UNL1        0.0516
      8 C         140.5046  145.3563  161.2121 C.2     1  UNL1        0.2494
      9 O         139.3709  146.3379  161.1768 O.2     1  UNL1       -0.2699
     10 N         141.0742  144.7109  162.4405 N.am    1  UNL1       -0.2623
     11 O         144.3449  143.4867  163.4281 O.2     1  UNL1       -0.2729
     12 C         143.0362  142.9597  162.9186 C.2     1  UNL1        0.2452
     13 N         142.5744  141.5887  163.3152 N.am    1  UNL1       -0.2988
     14 H         141.7154  141.2427  162.9808 H       1  UNL1        0.1498
     15 C         143.4212  140.7448  164.2211 C.3     1  UNL1        0.1164
     16 C         143.1547  140.7289  165.6971 C.ar    1  UNL1       -0.0024
     17 C         143.0607  142.0192  166.4563 C.ar    1  UNL1        0.0005
     18 C         142.7942  142.0033  167.9323 C.ar    1  UNL1        0.0369
     19 C         142.6216  140.6970  168.6493 C.ar    1  UNL1        0.1468
     20 C         142.7156  139.4067  167.8901 C.ar    1  UNL1        0.0369
     21 C         142.9822  139.4227  166.4140 C.ar    1  UNL1        0.0005
     22 O         142.3551  140.6811  170.1253 O.3     1  UNL1       -0.4045
     23 C         141.2798  141.5530  170.7027 C.3     1  UNL1        0.5753
     24 F         140.2045  142.4249  171.2802 F       1  UNL1       -0.1328
     25 F         142.3130  142.3111  171.4823 F       1  UNL1       -0.1328
     26 F         140.2465  140.7950  169.9231 F       1  UNL1       -0.1328
     27 C         140.6100  144.9337  163.8494 C.3     1  UNL1        0.1417
     28 C         139.4962  144.1017  164.4125 C.3     1  UNL1        0.2285
     29 O         139.7510  143.2027  165.5859 O.3     1  UNL1       -0.4583
     30 C         139.6096  141.7167  165.4369 C.ar    1  UNL1        0.2249
     31 C         139.4254  140.8554  166.6511 C.ar    1  UNL1        0.0577
     32 C         139.2841  139.3695  166.5021 C.ar    1  UNL1        0.0064
     33 C         139.3268  138.7450  165.1389 C.ar    1  UNL1        0.0209
     34 C         139.5110  139.6064  163.9247 C.ar    1  UNL1        0.1021
     35 N         139.6524  141.0922  164.0738 N.ar    1  UNL1       -0.2101
@<TRIPOS>BOND
     1    11    12    2
     2    12    13   am
     3    13    15    1
     4    15    16    1
     5    16    17   ar
     6    17    18   ar
     7    18    19   ar
     8    19    22    1
     9    22    23    1
    10    23    24    1
    11    23    25    1
    12    23    26    1
    13    19    20   ar
    14    20    21   ar
    15    12     1    1
    16     1     2    1
    17     2     3   ar
    18     3     4   ar
    19     4     5   ar
    20     5     6   ar
    21     6     7   ar
    22     7     8    1
    23     8     9    2
    24     8    10   am
    25    10    27    1
    26    27    28    1
    27    28    29    1
    28    29    30    1
    29    30    31   ar
    30    31    32   ar
    31    32    33   ar
    32    33    34   ar
    33    34    35   ar
    34    21    16   ar
    35    10     1    1
    36    35    30   ar
    37     7     2   ar
    38    13    14    1
@<TRIPOS>MOLECULE
*****
 35 38 0 0 0
SMALL
GASTEIGER

@<TRIPOS>ATOM
      1 C         142.0045  137.7940  157.9199 C.3     1  UNL1        0.1752
      2 C         142.2351  136.7616  156.8564 C.ar    1  UNL1        0.0089
      3 C         143.4309  135.9233  156.5139 C.ar    1  UNL1       -0.0021
      4 C         143.3651  134.9548  155.3704 C.ar    1  UNL1       -0.0003
      5 C         142.1035  134.8246  154.5694 C.ar    1  UNL1        0.0001
      6 C         140.9077  135.6629  154.9120 C.ar    1  UNL1        0.0043
      7 C         140.9736  136.6314  156.0555 C.ar    1  UNL1        0.0516
      8 C         139.9633  137.5833  156.6241 C.2     1  UNL1        0.2494
      9 O         138.5618  137.7818  156.1275 O.2     1  UNL1       -0.2699
     10 N         140.6004  138.3018  157.7763 N.am    1  UNL1       -0.2623
     11 O         144.0051  139.3028  158.6063 O.2     1  UNL1       -0.2729
     12 C         143.0028  138.2402  158.9468 C.2     1  UNL1        0.2452
     13 N         142.9986  137.6236  160.3143 N.am    1  UNL1       -0.2988
     14 H         142.3407  136.9262  160.5379 H       1  UNL1        0.1498
     15 C         143.9969  138.0698  161.3412 C.3     1  UNL1        0.1164
     16 C         143.6510  139.1775  162.2916 C.ar    1  UNL1       -0.0024
     17 C         144.2390  139.1928  163.6715 C.ar    1  UNL1        0.0005
     18 C         143.8930  140.3006  164.6218 C.ar    1  UNL1        0.0369
     19 C         142.9590  141.3930  164.1924 C.ar    1  UNL1        0.1468
     20 C         142.3711  141.3777  162.8125 C.ar    1  UNL1        0.0369
     21 C         142.7170  140.2699  161.8621 C.ar    1  UNL1        0.0005
     22 O         142.6131  142.5007  165.1428 O.3     1  UNL1       -0.4045
     23 C         143.0751  142.4374  166.5685 C.3     1  UNL1        0.5753
     24 F         143.5370  142.3740  167.9942 F       1  UNL1       -0.1328
     25 F         141.8789  141.6028  166.9190 F       1  UNL1       -0.1328
     26 F         144.2712  143.2719  166.2181 F       1  UNL1       -0.1328
     27 C         139.9480  139.3450  158.6343 C.3     1  UNL1        0.1417
     28 C         139.2259  138.9424  159.8859 C.3     1  UNL1        0.2285
     29 O         139.7255  137.7868  160.7013 O.3     1  UNL1       -0.4583
     30 C         140.0092  137.9676  162.1632 C.ar    1  UNL1        0.2249
     31 C         139.3820  139.1046  162.9140 C.ar    1  UNL1        0.0577
     32 C         139.6658  139.2853  164.3758 C.ar    1  UNL1        0.0064
     33 C         140.5767  138.3290  165.0868 C.ar    1  UNL1        0.0209
     34 C         141.2040  137.1919  164.3359 C.ar    1  UNL1        0.1021
     35 N         140.9202  137.0112  162.8742 N.ar    1  UNL1       -0.2101
@<TRIPOS>BOND
     1    11    12    2
     2    12    13   am
     3    13    15    1
     4    15    16    1
     5    16    17   ar
     6    17    18   ar
     7    18    19   ar
     8    19    22    1
     9    22    23    1
    10    23    24    1
    11    23    25    1
    12    23    26    1
    13    19    20   ar
    14    20    21   ar
    15    12     1    1
    16     1     2    1
    17     2     3   ar
    18     3     4   ar
    19     4     5   ar
    20     5     6   ar
    21     6     7   ar
    22     7     8    1
    23     8     9    2
    24     8    10   am
    25    10    27    1
    26    27    28    1
    27    28    29    1
    28    29    30    1
    29    30    31   ar
    30    31    32   ar
    31    32    33   ar
    32    33    34   ar
    33    34    35   ar
    34    21    16   ar
    35    10     1    1
    36    35    30   ar
    37     7     2   ar
    38    13    14    1
@<TRIPOS>MOLECULE
*****
 35 38 0 0 0
SMALL
GASTEIGER

@<TRIPOS>ATOM
      1 C         141.4261  140.2077  165.9670 C.3     1  UNL1        0.1752
      2 C         141.2867  140.2999  167.4577 C.ar    1  UNL1        0.0089
      3 C         140.3607  141.0923  168.3321 C.ar    1  UNL1       -0.0021
      4 C         140.4574  140.9780  169.8246 C.ar    1  UNL1       -0.0003
      5 C         141.4800  140.0712  170.4426 C.ar    1  UNL1        0.0001
      6 C         142.4060  139.2788  169.5682 C.ar    1  UNL1        0.0043
      7 C         142.3093  139.3931  168.0758 C.ar    1  UNL1        0.0516
      8 C         143.0807  138.7406  166.9671 C.2     1  UNL1        0.2494
      9 O         144.2012  137.7573  167.1326 O.2     1  UNL1       -0.2699
     10 N         142.5348  139.2441  165.6638 N.am    1  UNL1       -0.2623
     11 O         139.7188  140.1930  164.0087 O.2     1  UNL1       -0.2729
     12 C         140.6014  140.9491  164.9569 C.2     1  UNL1        0.2452
     13 N         140.6594  142.4468  164.8950 N.am    1  UNL1       -0.2988
     14 H         141.2388  142.9431  165.5173 H       1  UNL1        0.1498
     15 C         139.8348  143.1882  163.8849 C.3     1  UNL1        0.1164
     16 C         140.4319  143.5676  162.5622 C.ar    1  UNL1       -0.0024
     17 C         140.4358  145.0024  162.1249 C.ar    1  UNL1        0.0005
     18 C         141.0330  145.3816  160.8022 C.ar    1  UNL1        0.0369
     19 C         141.6262  144.3261  159.9168 C.ar    1  UNL1        0.1468
     20 C         141.6223  142.8913  160.3541 C.ar    1  UNL1        0.0369
     21 C         141.0251  142.5120  161.6769 C.ar    1  UNL1        0.0005
     22 O         142.2233  144.7054  158.5941 O.3     1  UNL1       -0.4045
     23 C         141.4540  145.5769  157.6461 C.3     1  UNL1        0.5753
     24 F         140.6847  146.4485  156.6982 F       1  UNL1       -0.1328
     25 F         142.6047  146.5379  157.5958 F       1  UNL1       -0.1328
     26 F         140.3034  144.6160  157.6965 F       1  UNL1       -0.1328
     27 C         143.0136  138.8526  164.2972 C.3     1  UNL1        0.1417
     28 C         144.3829  139.2575  163.8377 C.3     1  UNL1        0.2285
     29 O         145.0579  140.4486  164.4506 O.3     1  UNL1       -0.4583
     30 C         144.7080  141.8310  163.9850 C.ar    1  UNL1        0.2249
     31 C         144.1227  142.8210  164.9480 C.ar    1  UNL1        0.0577
     32 C         143.7728  144.2034  164.4824 C.ar    1  UNL1        0.0064
     33 C         144.0082  144.5957  163.0539 C.ar    1  UNL1        0.0209
     34 C         144.5935  143.6056  162.0909 C.ar    1  UNL1        0.1021
     35 N         144.9434  142.2233  162.5565 N.ar    1  UNL1       -0.2101
@<TRIPOS>BOND
     1    11    12    2
     2    12    13   am
     3    13    15    1
     4    15    16    1
     5    16    17   ar
     6    17    18   ar
     7    18    19   ar
     8    19    22    1
     9    22    23    1
    10    23    24    1
    11    23    25    1
    12    23    26    1
    13    19    20   ar
    14    20    21   ar
    15    12     1    1
    16     1     2    1
    17     2     3   ar
    18     3     4   ar
    19     4     5   ar
    20     5     6   ar
    21     6     7   ar
    22     7     8    1
    23     8     9    2
    24     8    10   am
    25    10    27    1
    26    27    28    1
    27    28    29    1
    28    29    30    1
    29    30    31   ar
    30    31    32   ar
    31    32    33   ar
    32    33    34   ar
    33    34    35   ar
    34    21    16   ar
    35    10     1    1
    36    35    30   ar
    37     7     2   ar
    38    13    14    1
@<TRIPOS>MOLECULE
*****
 35 38 0 0 0
SMALL
GASTEIGER

@<TRIPOS>ATOM
      1 C         138.7629  141.7371  161.3610 C.3     1  UNL1        0.1752
      2 C         139.3308  143.0733  160.9841 C.ar    1  UNL1        0.0089
      3 C         139.5374  144.3340  161.7701 C.ar    1  UNL1       -0.0021
      4 C         140.1414  145.5383  161.1109 C.ar    1  UNL1       -0.0003
      5 C         140.5389  145.4820  159.6656 C.ar    1  UNL1        0.0001
      6 C         140.3324  144.2213  158.8796 C.ar    1  UNL1        0.0043
      7 C         139.7283  143.0169  159.5388 C.ar    1  UNL1        0.0516
      8 C         139.4061  141.6459  159.0226 C.2     1  UNL1        0.2494
      9 O         139.6395  141.1526  157.6254 O.2     1  UNL1       -0.2699
     10 N         138.8094  140.8549  160.1488 N.am    1  UNL1       -0.2623
     11 O         136.8378  141.7098  163.1055 O.2     1  UNL1       -0.2729
     12 C         138.2403  141.3509  162.7130 C.2     1  UNL1        0.2452
     13 N         139.1202  140.6057  163.6724 N.am    1  UNL1       -0.2988
     14 H         140.0407  140.3701  163.4148 H       1  UNL1        0.1498
     15 C         138.5976  140.2195  165.0244 C.3     1  UNL1        0.1164
     16 C         139.3540  140.6082  166.2599 C.ar    1  UNL1       -0.0024
     17 C         140.2007  141.8464  166.2625 C.ar    1  UNL1        0.0005
     18 C         140.9571  142.2351  167.4981 C.ar    1  UNL1        0.0369
     19 C         140.8670  141.3856  168.7312 C.ar    1  UNL1        0.1468
     20 C         140.0203  140.1474  168.7285 C.ar    1  UNL1        0.0369
     21 C         139.2638  139.7587  167.4929 C.ar    1  UNL1        0.0005
     22 O         141.6234  141.7743  169.9667 O.3     1  UNL1       -0.4045
     23 C         143.0602  142.1930  169.8658 C.3     1  UNL1        0.5753
     24 F         144.4971  142.6118  169.7650 F       1  UNL1       -0.1328
     25 F         143.4201  140.8328  169.3459 F       1  UNL1       -0.1328
     26 F         142.7004  143.5532  170.3858 F       1  UNL1       -0.1328
     27 C         138.3414  139.4317  160.0755 C.3     1  UNL1        0.1417
     28 C         139.1606  138.3399  160.6975 C.3     1  UNL1        0.2285
     29 O         140.6156  138.5647  160.9846 O.3     1  UNL1       -0.4583
     30 C         141.1228  138.4858  162.3941 C.ar    1  UNL1        0.2249
     31 C         140.7684  137.3090  163.2540 C.ar    1  UNL1        0.0577
     32 C         141.2756  137.2301  164.6634 C.ar    1  UNL1        0.0064
     33 C         142.1373  138.3281  165.2130 C.ar    1  UNL1        0.0209
     34 C         142.4918  139.5049  164.3530 C.ar    1  UNL1        0.1021
     35 N         141.9845  139.5838  162.9436 N.ar    1  UNL1       -0.2101
@<TRIPOS>BOND
     1    11    12    2
     2    12    13   am
     3    13    15    1
     4    15    16    1
     5    16    17   ar
     6    17    18   ar
     7    18    19   ar
     8    19    22    1
     9    22    23    1
    10    23    24    1
    11    23    25    1
    12    23    26    1
    13    19    20   ar
    14    20    21   ar
    15    12     1    1
    16     1     2    1
    17     2     3   ar
    18     3     4   ar
    19     4     5   ar
    20     5     6   ar
    21     6     7   ar
    22     7     8    1
    23     8     9    2
    24     8    10   am
    25    10    27    1
    26    27    28    1
    27    28    29    1
    28    29    30    1
    29    30    31   ar
    30    31    32   ar
    31    32    33   ar
    32    33    34   ar
    33    34    35   ar
    34    21    16   ar
    35    10     1    1
    36    35    30   ar
    37     7     2   ar
    38    13    14    1
@<TRIPOS>MOLECULE
*****
 35 38 0 0 0
SMALL
GASTEIGER

@<TRIPOS>ATOM
      1 C         143.9218  140.8021  161.1024 C.3     1  UNL1        0.1752
      2 C         143.6926  141.4483  159.7683 C.ar    1  UNL1        0.0089
      3 C         143.7552  142.8790  159.3221 C.ar    1  UNL1       -0.0021
      4 C         143.4707  143.2318  157.8922 C.ar    1  UNL1       -0.0003
      5 C         143.1236  142.1539  156.9086 C.ar    1  UNL1        0.0001
      6 C         143.0610  140.7232  157.3548 C.ar    1  UNL1        0.0043
      7 C         143.3455  140.3704  158.7846 C.ar    1  UNL1        0.0516
      8 C         143.3601  139.0580  159.5108 C.2     1  UNL1        0.2494
      9 O         143.0696  137.7147  158.9100 O.2     1  UNL1       -0.2699
     10 N         143.7163  139.3248  160.9433 N.am    1  UNL1       -0.2623
     11 O         145.7330  141.7743  162.6911 O.2     1  UNL1       -0.2729
     12 C         144.2915  141.5091  162.3726 C.2     1  UNL1        0.2452
     13 N         143.2195  141.9509  163.3244 N.am    1  UNL1       -0.2988
     14 H         142.2734  141.7769  163.1154 H       1  UNL1        0.1498
     15 C         143.5893  142.6579  164.5947 C.3     1  UNL1        0.1164
     16 C         142.6851  142.5765  165.7887 C.ar    1  UNL1       -0.0024
     17 C         143.2246  142.1076  167.1075 C.ar    1  UNL1        0.0005
     18 C         142.3203  142.0262  168.3015 C.ar    1  UNL1        0.0369
     19 C         140.8766  142.4137  168.1768 C.ar    1  UNL1        0.1468
     20 C         140.3371  142.8826  166.8581 C.ar    1  UNL1        0.0369
     21 C         141.2414  142.9640  165.6640 C.ar    1  UNL1        0.0005
     22 O         139.9724  142.3323  169.3709 O.3     1  UNL1       -0.4045
     23 C         139.8771  141.0565  170.1540 C.3     1  UNL1        0.5753
     24 F         139.7819  139.7807  170.9371 F       1  UNL1       -0.1328
     25 F         139.0545  140.4455  169.0586 F       1  UNL1       -0.1328
     26 F         140.6998  141.6675  171.2494 F       1  UNL1       -0.1328
     27 C         143.8444  138.2951  162.0265 C.3     1  UNL1        0.1417
     28 C         142.7082  138.0614  162.9774 C.3     1  UNL1        0.2285
     29 O         142.4479  139.0347  164.0887 O.3     1  UNL1       -0.4583
     30 C         141.0489  139.4989  164.3669 C.ar    1  UNL1        0.2249
     31 C         140.3865  139.1476  165.6660 C.ar    1  UNL1        0.0577
     32 C         138.9875  139.6119  165.9442 C.ar    1  UNL1        0.0064
     33 C         138.2509  140.4273  164.9231 C.ar    1  UNL1        0.0209
     34 C         138.9134  140.7786  163.6239 C.ar    1  UNL1        0.1021
     35 N         140.3124  140.3144  163.3458 N.ar    1  UNL1       -0.2101
@<TRIPOS>BOND
     1    11    12    2
     2    12    13   am
     3    13    15    1
     4    15    16    1
     5    16    17   ar
     6    17    18   ar
     7    18    19   ar
     8    19    22    1
     9    22    23    1
    10    23    24    1
    11    23    25    1
    12    23    26    1
    13    19    20   ar
    14    20    21   ar
    15    12     1    1
    16     1     2    1
    17     2     3   ar
    18     3     4   ar
    19     4     5   ar
    20     5     6   ar
    21     6     7   ar
    22     7     8    1
    23     8     9    2
    24     8    10   am
    25    10    27    1
    26    27    28    1
    27    28    29    1
    28    29    30    1
    29    30    31   ar
    30    31    32   ar
    31    32    33   ar
    32    33    34   ar
    33    34    35   ar
    34    21    16   ar
    35    10     1    1
    36    35    30   ar
    37     7     2   ar
    38    13    14    1
@<TRIPOS>MOLECULE
*****
 35 38 0 0 0
SMALL
GASTEIGER

@<TRIPOS>ATOM
      1 C         140.4580  142.1438  160.1625 C.3     1  UNL1        0.1752
      2 C         140.7093  143.3132  159.2573 C.ar    1  UNL1        0.0089
      3 C         141.7738  144.3699  159.2546 C.ar    1  UNL1       -0.0021
      4 C         141.7687  145.4370  158.2005 C.ar    1  UNL1       -0.0003
      5 C         140.6991  145.4473  157.1489 C.ar    1  UNL1        0.0001
      6 C         139.6345  144.3906  157.1515 C.ar    1  UNL1        0.0043
      7 C         139.6396  143.3236  158.2057 C.ar    1  UNL1        0.0516
      8 C         138.7273  142.1606  158.4611 C.2     1  UNL1        0.2494
      9 O         137.5210  141.7915  157.6495 O.2     1  UNL1       -0.2699
     10 N         139.2331  141.4314  159.6704 N.am    1  UNL1       -0.2623
     11 O         142.1315  140.5169  161.3037 O.2     1  UNL1       -0.2729
     12 C         141.2863  141.7551  161.3511 C.2     1  UNL1        0.2452
     13 N         141.2694  142.6047  162.5873 N.am    1  UNL1       -0.2988
     14 H         140.7146  143.4174  162.6185 H       1  UNL1        0.1498
     15 C         142.0977  142.2159  163.7759 C.3     1  UNL1        0.1164
     16 C         141.4413  141.6134  164.9826 C.ar    1  UNL1       -0.0024
     17 C         140.7247  140.3005  164.8697 C.ar    1  UNL1        0.0005
     18 C         140.0684  139.6981  166.0764 C.ar    1  UNL1        0.0369
     19 C         140.1286  140.4086  167.3962 C.ar    1  UNL1        0.1468
     20 C         140.8452  141.7215  167.5091 C.ar    1  UNL1        0.0369
     21 C         141.5016  142.3239  166.3023 C.ar    1  UNL1        0.0005
     22 O         139.4722  139.8061  168.6029 O.3     1  UNL1       -0.4045
     23 C         139.9148  140.2105  169.9779 C.3     1  UNL1        0.5753
     24 F         140.3574  140.6148  171.3529 F       1  UNL1       -0.1328
     25 F         141.1096  139.3116  169.8576 F       1  UNL1       -0.1328
     26 F         138.7200  141.1093  170.0981 F       1  UNL1       -0.1328
     27 C         138.6214  140.2053  160.2806 C.3     1  UNL1        0.1417
     28 C         138.0001  140.2762  161.6440 C.3     1  UNL1        0.2285
     29 O         137.1374  141.4458  162.0151 O.3     1  UNL1       -0.4583
     30 C         137.7178  142.5882  162.7950 C.ar    1  UNL1        0.2249
     31 C         137.8167  142.5026  164.2893 C.ar    1  UNL1        0.0577
     32 C         138.3971  143.6450  165.0692 C.ar    1  UNL1        0.0064
     33 C         138.8784  144.8730  164.3548 C.ar    1  UNL1        0.0209
     34 C         138.7794  144.9585  162.8604 C.ar    1  UNL1        0.1021
     35 N         138.1991  143.8161  162.0806 N.ar    1  UNL1       -0.2101
@<TRIPOS>BOND
     1    11    12    2
     2    12    13   am
     3    13    15    1
     4    15    16    1
     5    16    17   ar
     6    17    18   ar
     7    18    19   ar
     8    19    22    1
     9    22    23    1
    10    23    24    1
    11    23    25    1
    12    23    26    1
    13    19    20   ar
    14    20    21   ar
    15    12     1    1
    16     1     2    1
    17     2     3   ar
    18     3     4   ar
    19     4     5   ar
    20     5     6   ar
    21     6     7   ar
    22     7     8    1
    23     8     9    2
    24     8    10   am
    25    10    27    1
    26    27    28    1
    27    28    29    1
    28    29    30    1
    29    30    31   ar
    30    31    32   ar
    31    32    33   ar
    32    33    34   ar
    33    34    35   ar
    34    21    16   ar
    35    10     1    1
    36    35    30   ar
    37     7     2   ar
    38    13    14    1
@<TRIPOS>MOLECULE
*****
 35 38 0 0 0
SMALL
GASTEIGER

@<TRIPOS>ATOM
      1 C         141.7448  138.3679  158.6851 C.3     1  UNL1        0.1752
      2 C         141.8856  137.3658  157.5779 C.ar    1  UNL1        0.0089
      3 C         142.9606  136.3708  157.2554 C.ar    1  UNL1       -0.0021
      4 C         142.8238  135.4814  156.0553 C.ar    1  UNL1       -0.0003
      5 C         141.6120  135.5871  155.1777 C.ar    1  UNL1        0.0001
      6 C         140.5369  136.5821  155.5002 C.ar    1  UNL1        0.0043
      7 C         140.6737  137.4715  156.7003 C.ar    1  UNL1        0.0516
      8 C         139.7840  138.5389  157.2652 C.2     1  UNL1        0.2494
      9 O         138.4640  138.9756  156.7021 O.2     1  UNL1       -0.2699
     10 N         140.4460  139.0929  158.4919 N.am    1  UNL1       -0.2623
     11 O         144.0457  139.2608  159.4967 O.2     1  UNL1       -0.2729
     12 C         142.7300  138.6036  159.7914 C.2     1  UNL1        0.2452
     13 N         142.3994  138.1820  161.1926 N.am    1  UNL1       -0.2988
     14 H         141.5358  137.7507  161.3860 H       1  UNL1        0.1498
     15 C         143.3846  138.4177  162.2989 C.3     1  UNL1        0.1164
     16 C         142.9256  139.0104  163.5981 C.ar    1  UNL1       -0.0024
     17 C         142.7167  140.4911  163.7148 C.ar    1  UNL1        0.0005
     18 C         142.2578  141.0837  165.0141 C.ar    1  UNL1        0.0369
     19 C         142.0077  140.1956  166.1968 C.ar    1  UNL1        0.1468
     20 C         142.2166  138.7148  166.0801 C.ar    1  UNL1        0.0369
     21 C         142.6756  138.1221  164.7807 C.ar    1  UNL1        0.0005
     22 O         141.5487  140.7882  167.4960 O.3     1  UNL1       -0.4045
     23 C         141.5745  139.9623  168.7478 C.3     1  UNL1        0.5753
     24 F         141.6004  139.1363  169.9997 F       1  UNL1       -0.1328
     25 F         143.0402  140.2417  168.9020 F       1  UNL1       -0.1328
     26 F         140.1089  139.6828  168.5937 F       1  UNL1       -0.1328
     27 C         139.9042  140.1809  159.3710 C.3     1  UNL1        0.1417
     28 C         139.1267  139.8307  160.6050 C.3     1  UNL1        0.2285
     29 O         139.7685  139.0184  161.6905 O.3     1  UNL1       -0.4583
     30 C         139.2686  139.1233  163.1009 C.ar    1  UNL1        0.2249
     31 C         139.1398  137.8899  163.9446 C.ar    1  UNL1        0.0577
     32 C         138.6399  137.9948  165.3551 C.ar    1  UNL1        0.0064
     33 C         138.2688  139.3331  165.9216 C.ar    1  UNL1        0.0209
     34 C         138.3976  140.5666  165.0778 C.ar    1  UNL1        0.1021
     35 N         138.8975  140.4617  163.6675 N.ar    1  UNL1       -0.2101
@<TRIPOS>BOND
     1    11    12    2
     2    12    13   am
     3    13    15    1
     4    15    16    1
     5    16    17   ar
     6    17    18   ar
     7    18    19   ar
     8    19    22    1
     9    22    23    1
    10    23    24    1
    11    23    25    1
    12    23    26    1
    13    19    20   ar
    14    20    21   ar
    15    12     1    1
    16     1     2    1
    17     2     3   ar
    18     3     4   ar
    19     4     5   ar
    20     5     6   ar
    21     6     7   ar
    22     7     8    1
    23     8     9    2
    24     8    10   am
    25    10    27    1
    26    27    28    1
    27    28    29    1
    28    29    30    1
    29    30    31   ar
    30    31    32   ar
    31    32    33   ar
    32    33    34   ar
    33    34    35   ar
    34    21    16   ar
    35    10     1    1
    36    35    30   ar
    37     7     2   ar
    38    13    14    1
@<TRIPOS>MOLECULE
*****
 35 38 0 0 0
SMALL
GASTEIGER

@<TRIPOS>ATOM
      1 C         141.4820  143.4909  162.1630 C.3     1  UNL1        0.1752
      2 C         141.8849  143.7554  160.7425 C.ar    1  UNL1        0.0089
      3 C         142.8576  143.0683  159.8306 C.ar    1  UNL1       -0.0021
      4 C         143.0550  143.5688  158.4304 C.ar    1  UNL1       -0.0003
      5 C         142.2798  144.7565  157.9422 C.ar    1  UNL1        0.0001
      6 C         141.3071  145.4437  158.8542 C.ar    1  UNL1        0.0043
      7 C         141.1097  144.9432  160.2543 C.ar    1  UNL1        0.0516
      8 C         140.2277  145.4127  161.3731 C.2     1  UNL1        0.2494
      9 O         139.2816  146.5756  161.3213 O.2     1  UNL1       -0.2699
     10 N         140.4577  144.5152  162.5527 N.am    1  UNL1       -0.2623
     11 O         143.3320  142.5578  163.7303 O.2     1  UNL1       -0.2729
     12 C         142.0105  142.3946  163.0398 C.2     1  UNL1        0.2452
     13 N         141.2175  141.1350  163.2260 N.am    1  UNL1       -0.2988
     14 H         140.3501  141.0279  162.7728 H       1  UNL1        0.1498
     15 C         141.7460  140.0387  164.1028 C.3     1  UNL1        0.1164
     16 C         141.3622  139.9866  165.5519 C.ar    1  UNL1       -0.0024
     17 C         142.4218  140.0554  166.6114 C.ar    1  UNL1        0.0005
     18 C         142.0379  140.0033  168.0605 C.ar    1  UNL1        0.0369
     19 C         140.5944  139.8823  168.4502 C.ar    1  UNL1        0.1468
     20 C         139.5349  139.8135  167.3907 C.ar    1  UNL1        0.0369
     21 C         139.9188  139.8657  165.9415 C.ar    1  UNL1        0.0005
     22 O         140.2107  139.8302  169.8993 O.3     1  UNL1       -0.4045
     23 C         140.3735  141.0460  170.7626 C.3     1  UNL1        0.5753
     24 F         140.5364  142.2618  171.6258 F       1  UNL1       -0.1328
     25 F         139.1098  141.6195  170.1933 F       1  UNL1       -0.1328
     26 F         141.6373  140.4725  171.3318 F       1  UNL1       -0.1328
     27 C         139.7822  144.6229  163.8876 C.3     1  UNL1        0.1417
     28 C         138.3029  144.4014  163.9996 C.3     1  UNL1        0.2285
     29 O         137.7649  143.0151  164.1964 O.3     1  UNL1       -0.4583
     30 C         137.8776  142.0035  163.0945 C.ar    1  UNL1        0.2249
     31 C         138.0369  142.4568  161.6736 C.ar    1  UNL1        0.0577
     32 C         138.1496  141.4452  160.5717 C.ar    1  UNL1        0.0064
     33 C         138.1031  139.9803  160.8909 C.ar    1  UNL1        0.0209
     34 C         137.9439  139.5270  162.3119 C.ar    1  UNL1        0.1021
     35 N         137.8311  140.5386  163.4137 N.ar    1  UNL1       -0.2101
@<TRIPOS>BOND
     1    11    12    2
     2    12    13   am
     3    13    15    1
     4    15    16    1
     5    16    17   ar
     6    17    18   ar
     7    18    19   ar
     8    19    22    1
     9    22    23    1
    10    23    24    1
    11    23    25    1
    12    23    26    1
    13    19    20   ar
    14    20    21   ar
    15    12     1    1
    16     1     2    1
    17     2     3   ar
    18     3     4   ar
    19     4     5   ar
    20     5     6   ar
    21     6     7   ar
    22     7     8    1
    23     8     9    2
    24     8    10   am
    25    10    27    1
    26    27    28    1
    27    28    29    1
    28    29    30    1
    29    30    31   ar
    30    31    32   ar
    31    32    33   ar
    32    33    34   ar
    33    34    35   ar
    34    21    16   ar
    35    10     1    1
    36    35    30   ar
    37     7     2   ar
    38    13    14    1
