@<TRIPOS>MOLECULE
*****
 26 28 0 0 0
SMALL
GASTEIGER

@<TRIPOS>ATOM
      1 C         139.7987  140.5372  167.9446 C.ar    1  UNL1        0.0218
      2 C         138.8380  139.6321  168.6573 C.ar    1  UNL1        0.0989
      3 N         137.8645  138.8041  167.8720 N.ar    1  UNL1       -0.2426
      4 C         137.8517  138.8812  166.3740 C.ar    1  UNL1        0.0962
      5 C         138.8123  139.7863  165.6614 C.ar    1  UNL1        0.0166
      6 C         139.7858  140.6144  166.4467 C.ar    1  UNL1        0.0006
      7 C         142.1141  140.8019  169.0930 C.ar    1  UNL1        0.1409
      8 C         143.0875  141.6300  169.8784 C.ar    1  UNL1        0.0665
      9 C         142.7190  143.0214  170.3006 C.ar    1  UNL1        0.1432
     10 F         143.6926  143.8494  171.0859 F       1  UNL1       -0.2041
     11 C         141.3771  143.5847  169.9375 C.ar    1  UNL1        0.0298
     12 C         140.4037  142.7567  169.1522 C.ar    1  UNL1        0.0054
     13 C         140.7722  141.3653  168.7300 C.ar    1  UNL1        0.0356
     14 C         143.0101  139.1610  167.2890 C.3     1  UNL1        0.2525
     15 O         142.4826  139.4106  168.6708 O.3     1  UNL1       -0.4714
     16 C         138.7995  139.8634  164.1634 C.3     1  UNL1        0.1181
     17 N         139.3814  141.0589  163.4690 N.am    1  UNL1       -0.2969
     18 C         138.4753  142.0808  162.8488 C.2     1  UNL1        0.2461
     19 O         136.9872  141.9073  162.9230 O.2     1  UNL1       -0.2701
     20 H         140.3581  141.1727  163.4203 H       1  UNL1        0.1501
     21 C         139.0573  143.2762  162.1544 C.ar    1  UNL1        0.0534
     22 C         139.6589  143.1307  160.7880 C.ar    1  UNL1        0.0045
     23 C         140.2409  144.3261  160.0936 C.ar    1  UNL1        0.0001
     24 C         140.2212  145.6672  160.7656 C.ar    1  UNL1        0.0000
     25 C         139.6196  145.8127  162.1319 C.ar    1  UNL1        0.0001
     26 C         139.0376  144.6171  162.8263 C.ar    1  UNL1        0.0045
@<TRIPOS>BOND
     1    14    15    1
     2    15     7    1
     3     7     8   ar
     4     8     9   ar
     5     9    10    1
     6     9    11   ar
     7    11    12   ar
     8    12    13   ar
     9    13     1    1
    10     1     2   ar
    11     2     3   ar
    12     3     4   ar
    13     4     5   ar
    14     5    16    1
    15    16    17    1
    16    17    18   am
    17    18    19    2
    18    18    21    1
    19    21    22   ar
    20    22    23   ar
    21    23    24   ar
    22    24    25   ar
    23    25    26   ar
    24     5     6   ar
    25    13     7   ar
    26     6     1   ar
    27    26    21   ar
    28    17    20    1
@<TRIPOS>MOLECULE
*****
 26 28 0 0 0
SMALL
GASTEIGER

@<TRIPOS>ATOM
      1 C         139.7013  140.5233  168.0819 C.ar    1  UNL1        0.0218
      2 C         138.7961  139.5942  168.8352 C.ar    1  UNL1        0.0989
      3 N         137.7864  138.7675  168.0957 N.ar    1  UNL1       -0.2426
      4 C         137.6817  138.8699  166.6028 C.ar    1  UNL1        0.0962
      5 C         138.5869  139.7989  165.8495 C.ar    1  UNL1        0.0166
      6 C         139.5967  140.6256  166.5891 C.ar    1  UNL1        0.0006
      7 C         142.0649  140.7821  169.1290 C.ar    1  UNL1        0.1409
      8 C         143.0746  141.6088  169.8686 C.ar    1  UNL1        0.0665
      9 C         142.7306  143.0034  170.3005 C.ar    1  UNL1        0.1432
     10 F         143.7404  143.8301  171.0401 F       1  UNL1       -0.2041
     11 C         141.3768  143.5713  169.9930 C.ar    1  UNL1        0.0298
     12 C         140.3670  142.7446  169.2534 C.ar    1  UNL1        0.0054
     13 C         140.7111  141.3500  168.8215 C.ar    1  UNL1        0.0356
     14 C         142.9624  139.1424  167.3247 C.3     1  UNL1        0.2525
     15 O         142.4090  139.3874  168.6971 O.3     1  UNL1       -0.4714
     16 C         138.4823  139.9013  164.3567 C.3     1  UNL1        0.1181
     17 N         139.7228  140.0479  163.5263 N.am    1  UNL1       -0.2969
     18 C         140.4189  138.8295  162.9963 C.2     1  UNL1        0.2461
     19 O         139.8745  137.4644  163.2968 O.2     1  UNL1       -0.2701
     20 H         140.0801  140.9439  163.3291 H       1  UNL1        0.1501
     21 C         141.6594  138.9761  162.1659 C.ar    1  UNL1        0.0534
     22 C         142.6703  137.8686  162.1257 C.ar    1  UNL1        0.0045
     23 C         143.9108  138.0152  161.2953 C.ar    1  UNL1        0.0001
     24 C         144.1405  139.2694  160.5050 C.ar    1  UNL1        0.0000
     25 C         143.1296  140.3769  160.5452 C.ar    1  UNL1        0.0001
     26 C         141.8891  140.2302  161.3757 C.ar    1  UNL1        0.0045
@<TRIPOS>BOND
     1    14    15    1
     2    15     7    1
     3     7     8   ar
     4     8     9   ar
     5     9    10    1
     6     9    11   ar
     7    11    12   ar
     8    12    13   ar
     9    13     1    1
    10     1     2   ar
    11     2     3   ar
    12     3     4   ar
    13     4     5   ar
    14     5    16    1
    15    16    17    1
    16    17    18   am
    17    18    19    2
    18    18    21    1
    19    21    22   ar
    20    22    23   ar
    21    23    24   ar
    22    24    25   ar
    23    25    26   ar
    24     5     6   ar
    25    13     7   ar
    26     6     1   ar
    27    26    21   ar
    28    17    20    1
@<TRIPOS>MOLECULE
*****
 26 28 0 0 0
SMALL
GASTEIGER

@<TRIPOS>ATOM
      1 C         142.2559  140.3702  167.4852 C.ar    1  UNL1        0.0218
      2 C         142.9128  139.0962  167.9274 C.ar    1  UNL1        0.0989
      3 N         143.7063  138.2826  166.9485 N.ar    1  UNL1       -0.2426
      4 C         143.8429  138.7429  165.5274 C.ar    1  UNL1        0.0962
      5 C         143.1860  140.0168  165.0852 C.ar    1  UNL1        0.0166
      6 C         142.3924  140.8305  166.0642 C.ar    1  UNL1        0.0006
      7 C         140.1044  140.7185  168.8994 C.ar    1  UNL1        0.1409
      8 C         139.3109  141.5321  169.8784 C.ar    1  UNL1        0.0665
      9 C         139.8754  142.8111  170.4221 C.ar    1  UNL1        0.1432
     10 F         139.0818  143.6248  171.4011 F       1  UNL1       -0.2041
     11 C         141.2333  143.2764  169.9869 C.ar    1  UNL1        0.0298
     12 C         142.0268  142.4628  169.0079 C.ar    1  UNL1        0.0054
     13 C         141.4623  141.1838  168.4642 C.ar    1  UNL1        0.0356
     14 C         138.7988  139.4414  167.0517 C.3     1  UNL1        0.2525
     15 O         139.5399  139.4395  168.3557 O.3     1  UNL1       -0.4714
     16 C         143.3226  140.4771  163.6642 C.3     1  UNL1        0.1181
     17 N         142.3636  141.4873  163.1076 N.am    1  UNL1       -0.2969
     18 C         142.8196  142.8935  162.8528 C.2     1  UNL1        0.2461
     19 O         144.2346  143.2893  163.1545 O.2     1  UNL1       -0.2701
     20 H         141.4349  141.2275  162.9096 H       1  UNL1        0.1501
     21 C         141.8606  143.9037  162.2962 C.ar    1  UNL1        0.0534
     22 C         140.8679  144.5728  163.2000 C.ar    1  UNL1        0.0045
     23 C         139.9089  145.5830  162.6434 C.ar    1  UNL1        0.0001
     24 C         139.9426  145.9241  161.1830 C.ar    1  UNL1        0.0000
     25 C         140.9354  145.2550  160.2793 C.ar    1  UNL1        0.0001
     26 C         141.8944  144.2448  160.8359 C.ar    1  UNL1        0.0045
@<TRIPOS>BOND
     1    14    15    1
     2    15     7    1
     3     7     8   ar
     4     8     9   ar
     5     9    10    1
     6     9    11   ar
     7    11    12   ar
     8    12    13   ar
     9    13     1    1
    10     1     2   ar
    11     2     3   ar
    12     3     4   ar
    13     4     5   ar
    14     5    16    1
    15    16    17    1
    16    17    18   am
    17    18    19    2
    18    18    21    1
    19    21    22   ar
    20    22    23   ar
    21    23    24   ar
    22    24    25   ar
    23    25    26   ar
    24     5     6   ar
    25    13     7   ar
    26     6     1   ar
    27    26    21   ar
    28    17    20    1
@<TRIPOS>MOLECULE
*****
 26 28 0 0 0
SMALL
GASTEIGER

@<TRIPOS>ATOM
      1 C         139.9445  143.2370  165.0738 C.ar    1  UNL1        0.0218
      2 C         138.7062  142.4248  164.8352 C.ar    1  UNL1        0.0989
      3 N         137.7721  142.7914  163.7203 N.ar    1  UNL1       -0.2426
      4 C         138.0762  143.9702  162.8440 C.ar    1  UNL1        0.0962
      5 C         139.3146  144.7824  163.0825 C.ar    1  UNL1        0.0166
      6 C         140.2487  144.4157  164.1975 C.ar    1  UNL1        0.0006
      7 C         142.2899  142.4650  165.8821 C.ar    1  UNL1        0.1409
      8 C         143.2240  142.0984  166.9970 C.ar    1  UNL1        0.0665
      9 C         142.7468  142.1371  168.4185 C.ar    1  UNL1        0.1432
     10 F         143.6809  141.7704  169.5335 F       1  UNL1       -0.2041
     11 C         141.3355  142.5424  168.7252 C.ar    1  UNL1        0.0298
     12 C         140.4015  142.9090  167.6103 C.ar    1  UNL1        0.0054
     13 C         140.8787  142.8703  166.1887 C.ar    1  UNL1        0.0356
     14 C         144.1318  142.9428  164.1132 C.3     1  UNL1        0.2525
     15 O         142.7671  142.4263  164.4605 O.3     1  UNL1       -0.4714
     16 C         139.6188  145.9612  162.2063 C.3     1  UNL1        0.1181
     17 N         139.6437  145.8005  160.7151 N.am    1  UNL1       -0.2969
     18 C         140.8503  145.2139  160.0441 C.2     1  UNL1        0.2461
     19 O         142.0317  144.7879  160.8642 O.2     1  UNL1       -0.2701
     20 H         138.8683  146.0801  160.1769 H       1  UNL1        0.1501
     21 C         140.8753  145.0533  158.5529 C.ar    1  UNL1        0.0534
     22 C         141.8670  145.8231  157.7322 C.ar    1  UNL1        0.0045
     23 C         141.8920  145.6625  156.2410 C.ar    1  UNL1        0.0001
     24 C         140.9252  144.7319  155.5706 C.ar    1  UNL1        0.0000
     25 C         139.9334  143.9621  156.3914 C.ar    1  UNL1        0.0001
     26 C         139.9085  144.1228  157.8826 C.ar    1  UNL1        0.0045
@<TRIPOS>BOND
     1    14    15    1
     2    15     7    1
     3     7     8   ar
     4     8     9   ar
     5     9    10    1
     6     9    11   ar
     7    11    12   ar
     8    12    13   ar
     9    13     1    1
    10     1     2   ar
    11     2     3   ar
    12     3     4   ar
    13     4     5   ar
    14     5    16    1
    15    16    17    1
    16    17    18   am
    17    18    19    2
    18    18    21    1
    19    21    22   ar
    20    22    23   ar
    21    23    24   ar
    22    24    25   ar
    23    25    26   ar
    24     5     6   ar
    25    13     7   ar
    26     6     1   ar
    27    26    21   ar
    28    17    20    1
@<TRIPOS>MOLECULE
*****
 26 28 0 0 0
SMALL
GASTEIGER

@<TRIPOS>ATOM
      1 C         142.6843  139.9554  166.4046 C.ar    1  UNL1        0.0218
      2 C         143.4206  138.6682  166.1788 C.ar    1  UNL1        0.0989
      3 N         144.5767  138.6229  165.2243 N.ar    1  UNL1       -0.2426
      4 C         144.9967  139.8649  164.4955 C.ar    1  UNL1        0.0962
      5 C         144.2605  141.1522  164.7213 C.ar    1  UNL1        0.0166
      6 C         143.1043  141.1974  165.6758 C.ar    1  UNL1        0.0006
      7 C         141.7627  140.3148  168.8070 C.ar    1  UNL1        0.1409
      8 C         140.6065  140.3600  169.7615 C.ar    1  UNL1        0.0665
      9 C         139.2157  140.0910  169.2682 C.ar    1  UNL1        0.1432
     10 F         138.0595  140.1362  170.2228 F       1  UNL1       -0.2041
     11 C         138.9811  139.7768  167.8204 C.ar    1  UNL1        0.0298
     12 C         140.1373  139.7316  166.8659 C.ar    1  UNL1        0.0054
     13 C         141.5281  140.0006  167.3592 C.ar    1  UNL1        0.0356
     14 C         143.5734  141.9849  169.6330 C.3     1  UNL1        0.2525
     15 O         143.1535  140.5838  169.3003 O.3     1  UNL1       -0.4714
     16 C         144.6804  142.3941  163.9925 C.3     1  UNL1        0.1181
     17 N         143.8759  142.8880  162.8269 N.am    1  UNL1       -0.2969
     18 C         142.7666  143.8739  163.0451 C.2     1  UNL1        0.2461
     19 O         142.4620  144.3660  164.4290 O.2     1  UNL1       -0.2701
     20 H         144.0758  142.5650  161.9186 H       1  UNL1        0.1501
     21 C         141.9620  144.3677  161.8795 C.ar    1  UNL1        0.0534
     22 C         140.8240  145.3190  162.1029 C.ar    1  UNL1        0.0045
     23 C         140.0194  145.8129  160.9373 C.ar    1  UNL1        0.0001
     24 C         140.3529  145.3554  159.5481 C.ar    1  UNL1        0.0000
     25 C         141.4909  144.4041  159.3247 C.ar    1  UNL1        0.0001
     26 C         142.2955  143.9103  160.4904 C.ar    1  UNL1        0.0045
@<TRIPOS>BOND
     1    14    15    1
     2    15     7    1
     3     7     8   ar
     4     8     9   ar
     5     9    10    1
     6     9    11   ar
     7    11    12   ar
     8    12    13   ar
     9    13     1    1
    10     1     2   ar
    11     2     3   ar
    12     3     4   ar
    13     4     5   ar
    14     5    16    1
    15    16    17    1
    16    17    18   am
    17    18    19    2
    18    18    21    1
    19    21    22   ar
    20    22    23   ar
    21    23    24   ar
    22    24    25   ar
    23    25    26   ar
    24     5     6   ar
    25    13     7   ar
    26     6     1   ar
    27    26    21   ar
    28    17    20    1
@<TRIPOS>MOLECULE
*****
 26 28 0 0 0
SMALL
GASTEIGER

@<TRIPOS>ATOM
      1 C         142.7674  139.7877  166.3978 C.ar    1  UNL1        0.0218
      2 C         143.5506  138.5094  166.3459 C.ar    1  UNL1        0.0989
      3 N         144.7079  138.3768  165.4010 N.ar    1  UNL1       -0.2426
      4 C         145.0822  139.5225  164.5079 C.ar    1  UNL1        0.0962
      5 C         144.2990  140.8007  164.5598 C.ar    1  UNL1        0.0166
      6 C         143.1416  140.9333  165.5048 C.ar    1  UNL1        0.0006
      7 C         140.2095  139.7142  166.8469 C.ar    1  UNL1        0.1409
      8 C         139.0522  139.8468  167.7918 C.ar    1  UNL1        0.0665
      9 C         139.2954  140.1854  169.2327 C.ar    1  UNL1        0.1432
     10 F         138.1380  140.3180  170.1777 F       1  UNL1       -0.2041
     11 C         140.6959  140.3915  169.7286 C.ar    1  UNL1        0.0298
     12 C         141.8532  140.2589  168.7837 C.ar    1  UNL1        0.0054
     13 C         141.6100  139.9203  167.3428 C.ar    1  UNL1        0.0356
     14 C         138.5770  139.4414  164.8442 C.3     1  UNL1        0.2525
     15 O         139.9662  139.3756  165.4060 O.3     1  UNL1       -0.4714
     16 C         144.6731  141.9463  163.6668 C.3     1  UNL1        0.1181
     17 N         143.6397  142.5736  162.7788 N.am    1  UNL1       -0.2969
     18 C         143.0668  143.9156  163.1266 C.2     1  UNL1        0.2461
     19 O         143.5273  144.6303  164.3624 O.2     1  UNL1       -0.2701
     20 H         143.3374  142.1045  161.9677 H       1  UNL1        0.1501
     21 C         142.0333  144.5428  162.2386 C.ar    1  UNL1        0.0534
     22 C         142.0349  144.2550  160.7665 C.ar    1  UNL1        0.0045
     23 C         141.0015  144.8823  159.8786 C.ar    1  UNL1        0.0001
     24 C         139.9664  145.7974  160.4627 C.ar    1  UNL1        0.0000
     25 C         139.9648  146.0852  161.9348 C.ar    1  UNL1        0.0001
     26 C         140.9983  145.4579  162.8228 C.ar    1  UNL1        0.0045
@<TRIPOS>BOND
     1    14    15    1
     2    15     7    1
     3     7     8   ar
     4     8     9   ar
     5     9    10    1
     6     9    11   ar
     7    11    12   ar
     8    12    13   ar
     9    13     1    1
    10     1     2   ar
    11     2     3   ar
    12     3     4   ar
    13     4     5   ar
    14     5    16    1
    15    16    17    1
    16    17    18   am
    17    18    19    2
    18    18    21    1
    19    21    22   ar
    20    22    23   ar
    21    23    24   ar
    22    24    25   ar
    23    25    26   ar
    24     5     6   ar
    25    13     7   ar
    26     6     1   ar
    27    26    21   ar
    28    17    20    1
@<TRIPOS>MOLECULE
*****
 26 28 0 0 0
SMALL
GASTEIGER

@<TRIPOS>ATOM
      1 C         139.8236  142.1716  165.9688 C.ar    1  UNL1        0.0218
      2 C         139.0814  140.8767  165.8194 C.ar    1  UNL1        0.0989
      3 N         138.0767  140.7108  164.7181 N.ar    1  UNL1       -0.2426
      4 C         137.8142  141.8399  163.7660 C.ar    1  UNL1        0.0962
      5 C         138.5565  143.1348  163.9153 C.ar    1  UNL1        0.0166
      6 C         139.5612  143.3006  165.0168 C.ar    1  UNL1        0.0006
      7 C         142.2732  142.0207  166.8213 C.ar    1  UNL1        0.1409
      8 C         143.2779  142.1865  167.9228 C.ar    1  UNL1        0.0665
      9 C         142.8376  142.6691  169.2730 C.ar    1  UNL1        0.1432
     10 F         143.8424  142.8350  170.3745 F       1  UNL1       -0.2041
     11 C         141.3928  142.9859  169.5219 C.ar    1  UNL1        0.0298
     12 C         140.3881  142.8201  168.4205 C.ar    1  UNL1        0.0054
     13 C         140.8284  142.3374  167.0702 C.ar    1  UNL1        0.0356
     14 C         143.2843  140.1596  165.3167 C.3     1  UNL1        0.2525
     15 O         142.7134  141.5380  165.4711 O.3     1  UNL1       -0.4714
     16 C         138.2940  144.2638  162.9633 C.3     1  UNL1        0.1181
     17 N         138.9151  144.2532  161.5980 N.am    1  UNL1       -0.2969
     18 C         140.2775  144.8452  161.3891 C.2     1  UNL1        0.2461
     19 O         141.0188  145.4477  162.5456 O.2     1  UNL1       -0.2701
     20 H         138.4285  143.8578  160.8389 H       1  UNL1        0.1501
     21 C         140.8985  144.8346  160.0238 C.ar    1  UNL1        0.0534
     22 C         142.0643  143.9353  159.7370 C.ar    1  UNL1        0.0045
     23 C         142.6853  143.9248  158.3717 C.ar    1  UNL1        0.0001
     24 C         142.1406  144.8135  157.2930 C.ar    1  UNL1        0.0000
     25 C         140.9748  145.7128  157.5798 C.ar    1  UNL1        0.0001
     26 C         140.3537  145.7233  158.9452 C.ar    1  UNL1        0.0045
@<TRIPOS>BOND
     1    14    15    1
     2    15     7    1
     3     7     8   ar
     4     8     9   ar
     5     9    10    1
     6     9    11   ar
     7    11    12   ar
     8    12    13   ar
     9    13     1    1
    10     1     2   ar
    11     2     3   ar
    12     3     4   ar
    13     4     5   ar
    14     5    16    1
    15    16    17    1
    16    17    18   am
    17    18    19    2
    18    18    21    1
    19    21    22   ar
    20    22    23   ar
    21    23    24   ar
    22    24    25   ar
    23    25    26   ar
    24     5     6   ar
    25    13     7   ar
    26     6     1   ar
    27    26    21   ar
    28    17    20    1
@<TRIPOS>MOLECULE
*****
 26 28 0 0 0
SMALL
GASTEIGER

@<TRIPOS>ATOM
      1 C         141.8699  142.6121  166.1352 C.ar    1  UNL1        0.0218
      2 C         143.3529  142.3891  166.1055 C.ar    1  UNL1        0.0989
      3 N         144.1888  143.0442  165.0462 N.ar    1  UNL1       -0.2426
      4 C         143.5416  143.9223  164.0165 C.ar    1  UNL1        0.0962
      5 C         142.0585  144.1452  164.0462 C.ar    1  UNL1        0.0166
      6 C         141.2227  143.4901  165.1056 C.ar    1  UNL1        0.0006
      7 C         140.3822  140.6334  166.9239 C.ar    1  UNL1        0.1409
      8 C         139.5464  139.9784  167.9832 C.ar    1  UNL1        0.0665
      9 C         139.3625  140.6469  169.3134 C.ar    1  UNL1        0.1432
     10 F         138.5267  139.9918  170.3728 F       1  UNL1       -0.2041
     11 C         140.0143  141.9704  169.5842 C.ar    1  UNL1        0.0298
     12 C         140.8501  142.6254  168.5248 C.ar    1  UNL1        0.0054
     13 C         141.0341  141.9570  167.1946 C.ar    1  UNL1        0.0356
     14 C         141.6648  138.9615  165.4042 C.3     1  UNL1        0.2525
     15 O         140.5662  139.9650  165.5937 O.3     1  UNL1       -0.4714
     16 C         141.4113  145.0232  163.0166 C.3     1  UNL1        0.1181
     17 N         141.7571  144.8587  161.5663 N.am    1  UNL1       -0.2969
     18 C         140.8092  145.3433  160.5096 C.2     1  UNL1        0.2461
     19 O         139.5155  145.9924  160.9032 O.2     1  UNL1       -0.2701
     20 H         142.6063  144.4326  161.3080 H       1  UNL1        0.1501
     21 C         141.1550  145.1787  159.0593 C.ar    1  UNL1        0.0534
     22 C         142.2124  144.1980  158.6470 C.ar    1  UNL1        0.0045
     23 C         142.5583  144.0334  157.1968 C.ar    1  UNL1        0.0001
     24 C         141.8466  144.8496  156.1587 C.ar    1  UNL1        0.0000
     25 C         140.7892  145.8303  156.5710 C.ar    1  UNL1        0.0001
     26 C         140.4434  145.9949  158.0214 C.ar    1  UNL1        0.0045
@<TRIPOS>BOND
     1    14    15    1
     2    15     7    1
     3     7     8   ar
     4     8     9   ar
     5     9    10    1
     6     9    11   ar
     7    11    12   ar
     8    12    13   ar
     9    13     1    1
    10     1     2   ar
    11     2     3   ar
    12     3     4   ar
    13     4     5   ar
    14     5    16    1
    15    16    17    1
    16    17    18   am
    17    18    19    2
    18    18    21    1
    19    21    22   ar
    20    22    23   ar
    21    23    24   ar
    22    24    25   ar
    23    25    26   ar
    24     5     6   ar
    25    13     7   ar
    26     6     1   ar
    27    26    21   ar
    28    17    20    1
@<TRIPOS>MOLECULE
*****
 26 28 0 0 0
SMALL
GASTEIGER

@<TRIPOS>ATOM
      1 C         143.3380  135.9443  156.4680 C.ar    1  UNL1        0.0218
      2 C         144.2679  136.5746  155.4741 C.ar    1  UNL1        0.0989
      3 N         144.4580  138.0624  155.4635 N.ar    1  UNL1       -0.2426
      4 C         143.7180  138.9201  156.4469 C.ar    1  UNL1        0.0962
      5 C         142.7881  138.2898  157.4408 C.ar    1  UNL1        0.0166
      6 C         142.5980  136.8019  157.4514 C.ar    1  UNL1        0.0006
      7 C         142.0412  133.8359  155.6785 C.ar    1  UNL1        0.1409
      8 C         141.8513  132.3481  155.6891 C.ar    1  UNL1        0.0665
      9 C         142.7680  131.4807  156.4998 C.ar    1  UNL1        0.1432
     10 F         142.5780  129.9927  156.5103 F       1  UNL1       -0.2041
     11 C         143.8747  132.1011  157.2998 C.ar    1  UNL1        0.0298
     12 C         144.0647  133.5890  157.2893 C.ar    1  UNL1        0.0054
     13 C         143.1479  134.4564  156.4786 C.ar    1  UNL1        0.0356
     14 C         141.3890  134.9142  153.4065 C.3     1  UNL1        0.2525
     15 O         141.1245  134.7033  154.8678 O.3     1  UNL1       -0.4714
     16 C         142.0481  139.1474  158.4242 C.3     1  UNL1        0.1181
     17 N         142.7980  139.8629  159.5084 N.am    1  UNL1       -0.2969
     18 C         143.2820  139.1069  160.7102 C.2     1  UNL1        0.2461
     19 O         143.0160  137.6353  160.8277 O.2     1  UNL1       -0.2701
     20 H         142.9726  140.8287  159.4313 H       1  UNL1        0.1501
     21 C         144.0319  139.8224  161.7945 C.ar    1  UNL1        0.0534
     22 C         144.2741  139.1457  163.1111 C.ar    1  UNL1        0.0045
     23 C         145.0240  139.8613  164.1953 C.ar    1  UNL1        0.0001
     24 C         145.5318  141.2535  163.9630 C.ar    1  UNL1        0.0000
     25 C         145.2896  141.9302  162.6464 C.ar    1  UNL1        0.0001
     26 C         144.5396  141.2146  161.5621 C.ar    1  UNL1        0.0045
@<TRIPOS>BOND
     1    14    15    1
     2    15     7    1
     3     7     8   ar
     4     8     9   ar
     5     9    10    1
     6     9    11   ar
     7    11    12   ar
     8    12    13   ar
     9    13     1    1
    10     1     2   ar
    11     2     3   ar
    12     3     4   ar
    13     4     5   ar
    14     5    16    1
    15    16    17    1
    16    17    18   am
    17    18    19    2
    18    18    21    1
    19    21    22   ar
    20    22    23   ar
    21    23    24   ar
    22    24    25   ar
    23    25    26   ar
    24     5     6   ar
    25    13     7   ar
    26     6     1   ar
    27    26    21   ar
    28    17    20    1
