@<TRIPOS>MOLECULE
*****
 29 33 0 0 0
SMALL
GASTEIGER

@<TRIPOS>ATOM
      1 N         142.1713  138.8285  164.4120 N.3     1  UNL1       -0.2700
      2 C         142.3717  139.1076  162.9519 C.3     1  UNL1        0.0897
      3 C         141.2534  138.8661  161.9817 C.3     1  UNL1        0.0897
      4 N         139.9348  138.3455  162.4717 N.3     1  UNL1       -0.2700
      5 C         139.7344  138.0664  163.9318 C.3     1  UNL1        0.0897
      6 C         140.8526  138.3079  164.9020 C.3     1  UNL1        0.0897
      7 C         143.2895  139.0701  165.3822 C.3     1  UNL1        0.0769
      8 C         143.0643  138.8687  166.8514 C.3     1  UNL1        0.0437
      9 O         140.1492  144.4439  170.1757 O.2     1  UNL1       -0.2449
     10 C         140.5764  143.0177  170.3587 C.2     1  UNL1        0.3413
     11 O         140.4584  142.2171  171.6216 O.3     1  UNL1       -0.4404
     12 C         141.0056  140.8463  171.3542 C.3     1  UNL1        0.2356
     13 C         141.4618  140.7997  169.9260 C.ar    1  UNL1        0.0272
     14 C         142.0844  139.7087  169.1062 C.ar    1  UNL1       -0.0047
     15 C         142.4417  139.9597  167.6712 C.ar    1  UNL1       -0.0210
     16 C         142.1764  141.3018  167.0560 C.ar    1  UNL1       -0.0040
     17 C         141.5537  142.3928  167.8757 C.ar    1  UNL1        0.0059
     18 C         141.1964  142.1418  169.3107 C.ar    1  UNL1        0.0751
     19 C         138.8166  138.1039  161.5016 C.3     1  UNL1        0.0769
     20 C         137.6472  139.0423  161.4562 C.3     1  UNL1        0.0437
     21 C         137.8396  140.4962  161.7713 C.ar    1  UNL1       -0.0191
     22 C         137.3680  141.0479  163.0840 C.ar    1  UNL1       -0.0025
     23 C         137.5604  142.5017  163.3990 C.ar    1  UNL1        0.0238
     24 C         138.2244  143.4038  162.4014 C.ar    1  UNL1        0.1431
     25 N         138.5489  144.8681  162.4323 N.ar    1  UNL1       -0.0483
     26 O         139.2210  145.2212  161.1387 O.2     1  UNL1       -0.2415
     27 N         139.3119  143.9753  160.3083 N.ar    1  UNL1       -0.0483
     28 C         138.6960  142.8522  161.0887 C.ar    1  UNL1        0.1428
     29 C         138.5036  141.3983  160.7736 C.ar    1  UNL1        0.0199
@<TRIPOS>BOND
     1     9    10    2
     2    10    11    1
     3    11    12    1
     4    12    13    1
     5    13    14   ar
     6    14    15   ar
     7    15     8    1
     8     8     7    1
     9     7     1    1
    10     1     2    1
    11     2     3    1
    12     3     4    1
    13     4    19    1
    14    19    20    1
    15    20    21    1
    16    21    22   ar
    17    22    23   ar
    18    23    24   ar
    19    24    25   ar
    20    25    26   ar
    21    26    27   ar
    22    27    28   ar
    23    28    29   ar
    24     4     5    1
    25     5     6    1
    26    15    16   ar
    27    16    17   ar
    28    17    18   ar
    29    18    10    1
    30    18    13   ar
    31     6     1    1
    32    29    21   ar
    33    28    24   ar
@<TRIPOS>MOLECULE
*****
 29 33 0 0 0
SMALL
GASTEIGER

@<TRIPOS>ATOM
      1 N         140.0848  138.1238  162.7386 N.3     1  UNL1       -0.2700
      2 C         141.4386  138.5833  162.2846 C.3     1  UNL1        0.0897
      3 C         142.5105  138.8705  163.2939 C.3     1  UNL1        0.0897
      4 N         142.2286  138.6983  164.7570 N.3     1  UNL1       -0.2700
      5 C         140.8748  138.2388  165.2110 C.3     1  UNL1        0.0897
      6 C         139.8029  137.9516  164.2018 C.3     1  UNL1        0.0897
      7 C         139.0129  137.8366  161.7294 C.3     1  UNL1        0.0769
      8 C         137.8125  138.7312  161.6350 C.3     1  UNL1        0.0437
      9 O         138.6696  145.7899  161.9029 O.2     1  UNL1       -0.2449
     10 C         138.3394  144.5819  162.7286 C.2     1  UNL1        0.3413
     11 O         138.0294  144.5750  164.1962 O.3     1  UNL1       -0.4404
     12 C         137.7596  143.1576  164.6062 C.3     1  UNL1        0.2356
     13 C         137.9029  142.2885  163.3920 C.ar    1  UNL1        0.0272
     14 C         137.7533  140.8093  163.1932 C.ar    1  UNL1       -0.0047
     15 C         137.9621  140.2104  161.8339 C.ar    1  UNL1       -0.0210
     16 C         138.3204  141.0907  160.6734 C.ar    1  UNL1       -0.0040
     17 C         138.4700  142.5699  160.8723 C.ar    1  UNL1        0.0059
     18 C         138.2612  143.1688  162.2316 C.ar    1  UNL1        0.0751
     19 C         143.3005  138.9855  165.7662 C.3     1  UNL1        0.0769
     20 C         143.0339  138.7677  167.2262 C.3     1  UNL1        0.0437
     21 C         142.5430  139.9019  168.0763 C.ar    1  UNL1       -0.0191
     22 C         142.6645  141.3142  167.5856 C.ar    1  UNL1       -0.0025
     23 C         142.1736  142.4483  168.4357 C.ar    1  UNL1        0.0238
     24 C         141.5612  142.1702  169.7765 C.ar    1  UNL1        0.1431
     25 N         140.9929  143.0767  170.8279 N.ar    1  UNL1       -0.0483
     26 O         140.5202  142.2247  171.9683 O.2     1  UNL1       -0.2415
     27 N         140.7963  140.7916  171.6217 N.ar    1  UNL1       -0.0483
     28 C         141.4397  140.7580  170.2671 C.ar    1  UNL1        0.1428
     29 C         141.9306  139.6238  169.4170 C.ar    1  UNL1        0.0199
@<TRIPOS>BOND
     1     9    10    2
     2    10    11    1
     3    11    12    1
     4    12    13    1
     5    13    14   ar
     6    14    15   ar
     7    15     8    1
     8     8     7    1
     9     7     1    1
    10     1     2    1
    11     2     3    1
    12     3     4    1
    13     4    19    1
    14    19    20    1
    15    20    21    1
    16    21    22   ar
    17    22    23   ar
    18    23    24   ar
    19    24    25   ar
    20    25    26   ar
    21    26    27   ar
    22    27    28   ar
    23    28    29   ar
    24     4     5    1
    25     5     6    1
    26    15    16   ar
    27    16    17   ar
    28    17    18   ar
    29    18    10    1
    30    18    13   ar
    31     6     1    1
    32    29    21   ar
    33    28    24   ar
@<TRIPOS>MOLECULE
*****
 29 33 0 0 0
SMALL
GASTEIGER

@<TRIPOS>ATOM
      1 N         142.2608  138.0896  162.5244 N.3     1  UNL1       -0.2700
      2 C         140.8914  138.0209  161.9160 C.3     1  UNL1        0.0897
      3 C         139.6778  138.0285  162.7976 C.3     1  UNL1        0.0897
      4 N         139.8336  138.1048  164.2875 N.3     1  UNL1       -0.2700
      5 C         141.2029  138.1735  164.8959 C.3     1  UNL1        0.0897
      6 C         142.4165  138.1659  164.0144 C.3     1  UNL1        0.0897
      7 C         143.4743  138.0820  161.6428 C.3     1  UNL1        0.0769
      8 C         144.0825  139.3772  161.1927 C.3     1  UNL1        0.0437
      9 O         145.2269  144.3795  166.1221 O.2     1  UNL1       -0.2449
     10 C         144.4482  144.0657  164.8791 C.2     1  UNL1        0.3413
     11 O         143.4653  144.9739  164.2015 O.3     1  UNL1       -0.4404
     12 C         142.9253  144.2579  162.9991 C.3     1  UNL1        0.2356
     13 C         143.5744  142.9072  162.9335 C.ar    1  UNL1        0.0272
     14 C         143.4300  141.7702  161.9660 C.ar    1  UNL1       -0.0047
     15 C         144.2268  140.5143  162.1603 C.ar    1  UNL1       -0.0210
     16 C         145.1680  140.3955  163.3222 C.ar    1  UNL1       -0.0040
     17 C         145.3124  141.5325  164.2898 C.ar    1  UNL1        0.0059
     18 C         144.5156  142.7884  164.0954 C.ar    1  UNL1        0.0751
     19 C         138.6200  138.1124  165.1690 C.3     1  UNL1        0.0769
     20 C         138.2000  139.3779  165.8562 C.3     1  UNL1        0.0437
     21 C         138.5242  140.7077  165.2424 C.ar    1  UNL1       -0.0191
     22 C         139.5772  141.5810  165.8575 C.ar    1  UNL1       -0.0025
     23 C         139.9013  142.9107  165.2438 C.ar    1  UNL1        0.0238
     24 C         139.1723  143.3671  164.0148 C.ar    1  UNL1        0.1431
     25 N         139.2754  144.6179  163.1931 N.ar    1  UNL1       -0.0483
     26 O         138.2861  144.5175  162.0701 O.2     1  UNL1       -0.2415
     27 N         137.5716  143.2048  162.1978 N.ar    1  UNL1       -0.0483
     28 C         138.1193  142.4939  163.3997 C.ar    1  UNL1        0.1428
     29 C         137.7952  141.1642  164.0135 C.ar    1  UNL1        0.0199
@<TRIPOS>BOND
     1     9    10    2
     2    10    11    1
     3    11    12    1
     4    12    13    1
     5    13    14   ar
     6    14    15   ar
     7    15     8    1
     8     8     7    1
     9     7     1    1
    10     1     2    1
    11     2     3    1
    12     3     4    1
    13     4    19    1
    14    19    20    1
    15    20    21    1
    16    21    22   ar
    17    22    23   ar
    18    23    24   ar
    19    24    25   ar
    20    25    26   ar
    21    26    27   ar
    22    27    28   ar
    23    28    29   ar
    24     4     5    1
    25     5     6    1
    26    15    16   ar
    27    16    17   ar
    28    17    18   ar
    29    18    10    1
    30    18    13   ar
    31     6     1    1
    32    29    21   ar
    33    28    24   ar
@<TRIPOS>MOLECULE
*****
 29 33 0 0 0
SMALL
GASTEIGER

@<TRIPOS>ATOM
      1 N         138.0876  140.1035  162.0311 N.3     1  UNL1       -0.2700
      2 C         138.2918  141.3200  161.1778 C.3     1  UNL1        0.0897
      3 C         138.1730  142.6881  161.7814 C.3     1  UNL1        0.0897
      4 N         137.8499  142.8396  163.2383 N.3     1  UNL1       -0.2700
      5 C         137.6456  141.6231  164.0917 C.3     1  UNL1        0.0897
      6 C         137.7644  140.2550  163.4881 C.3     1  UNL1        0.0897
      7 C         138.2064  138.7354  161.4276 C.3     1  UNL1        0.0769
      8 C         139.5556  138.0982  161.2737 C.3     1  UNL1        0.0437
      9 O         143.8217  138.1577  166.9683 O.2     1  UNL1       -0.2449
     10 C         143.7301  138.5542  165.5245 C.2     1  UNL1        0.3413
     11 O         144.8013  139.2391  164.7287 O.3     1  UNL1       -0.4404
     12 C         144.2845  139.4436  163.3355 C.3     1  UNL1        0.2356
     13 C         142.8939  138.8851  163.2703 C.ar    1  UNL1        0.0272
     14 C         141.8953  138.8060  162.1538 C.ar    1  UNL1       -0.0047
     15 C         140.5542  138.1773  162.3902 C.ar    1  UNL1       -0.0210
     16 C         140.2115  137.6276  163.7432 C.ar    1  UNL1       -0.0040
     17 C         141.2101  137.7067  164.8597 C.ar    1  UNL1        0.0059
     18 C         142.5512  138.3354  164.6232 C.ar    1  UNL1        0.0751
     19 C         137.7311  144.2077  163.8418 C.3     1  UNL1        0.0769
     20 C         138.8516  144.7615  164.6711 C.3     1  UNL1        0.0437
     21 C         140.2497  144.2534  164.4780 C.ar    1  UNL1       -0.0191
     22 C         140.8176  143.2409  165.4278 C.ar    1  UNL1       -0.0025
     23 C         142.2156  142.7328  165.2347 C.ar    1  UNL1        0.0238
     24 C         143.0457  143.2373  164.0916 C.ar    1  UNL1        0.1431
     25 N         144.4447  142.9223  163.6515 N.ar    1  UNL1       -0.0483
     26 O         144.7414  143.7402  162.4296 O.2     1  UNL1       -0.2415
     27 N         143.5257  144.5606  162.1146 N.ar    1  UNL1       -0.0483
     28 C         142.4778  144.2497  163.1418 C.ar    1  UNL1        0.1428
     29 C         141.0797  144.7578  163.3349 C.ar    1  UNL1        0.0199
@<TRIPOS>BOND
     1     9    10    2
     2    10    11    1
     3    11    12    1
     4    12    13    1
     5    13    14   ar
     6    14    15   ar
     7    15     8    1
     8     8     7    1
     9     7     1    1
    10     1     2    1
    11     2     3    1
    12     3     4    1
    13     4    19    1
    14    19    20    1
    15    20    21    1
    16    21    22   ar
    17    22    23   ar
    18    23    24   ar
    19    24    25   ar
    20    25    26   ar
    21    26    27   ar
    22    27    28   ar
    23    28    29   ar
    24     4     5    1
    25     5     6    1
    26    15    16   ar
    27    16    17   ar
    28    17    18   ar
    29    18    10    1
    30    18    13   ar
    31     6     1    1
    32    29    21   ar
    33    28    24   ar
@<TRIPOS>MOLECULE
*****
 29 33 0 0 0
SMALL
GASTEIGER

@<TRIPOS>ATOM
      1 N         141.5699  138.1089  164.5004 N.3     1  UNL1       -0.2700
      2 C         142.1830  138.2166  163.1356 C.3     1  UNL1        0.0897
      3 C         143.4060  139.0598  162.9273 C.3     1  UNL1        0.0897
      4 N         144.0159  139.7953  164.0836 N.3     1  UNL1       -0.2700
      5 C         143.4028  139.6876  165.4484 C.3     1  UNL1        0.0897
      6 C         142.1798  138.8444  165.6568 C.3     1  UNL1        0.0897
      7 C         140.3470  137.2658  164.7088 C.3     1  UNL1        0.0769
      8 C         139.0233  137.9180  164.9779 C.3     1  UNL1        0.0437
      9 O         137.5920  144.5628  162.8730 O.2     1  UNL1       -0.2449
     10 C         137.8186  143.1636  162.3822 C.2     1  UNL1        0.3413
     11 O         137.7892  142.7157  160.9509 O.3     1  UNL1       -0.4404
     12 C         138.0668  141.2419  160.9207 C.3     1  UNL1        0.2356
     13 C         138.2679  140.7790  162.3333 C.ar    1  UNL1        0.0272
     14 C         138.5708  139.4295  162.9137 C.ar    1  UNL1       -0.0047
     15 C         138.7203  139.2676  164.3974 C.ar    1  UNL1       -0.0210
     16 C         138.5669  140.4553  165.3006 C.ar    1  UNL1       -0.0040
     17 C         138.2640  141.8049  164.7202 C.ar    1  UNL1        0.0059
     18 C         138.1145  141.9667  163.2365 C.ar    1  UNL1        0.0751
     19 C         145.2388  140.6384  163.8752 C.3     1  UNL1        0.0769
     20 C         145.1911  142.1112  164.1555 C.3     1  UNL1        0.0437
     21 C         144.0429  142.9339  163.6507 C.ar    1  UNL1       -0.0191
     22 C         143.0348  143.4859  164.6145 C.ar    1  UNL1       -0.0025
     23 C         141.8867  144.3086  164.1097 C.ar    1  UNL1        0.0238
     24 C         141.7466  144.5792  162.6410 C.ar    1  UNL1        0.1431
     25 N         140.7276  145.3502  161.8552 N.ar    1  UNL1       -0.0483
     26 O         141.1060  145.2747  160.4056 O.2     1  UNL1       -0.2415
     27 N         142.3588  144.4570  160.2956 N.ar    1  UNL1       -0.0483
     28 C         142.7547  144.0272  161.6771 C.ar    1  UNL1        0.1428
     29 C         143.9028  143.2046  162.1820 C.ar    1  UNL1        0.0199
@<TRIPOS>BOND
     1     9    10    2
     2    10    11    1
     3    11    12    1
     4    12    13    1
     5    13    14   ar
     6    14    15   ar
     7    15     8    1
     8     8     7    1
     9     7     1    1
    10     1     2    1
    11     2     3    1
    12     3     4    1
    13     4    19    1
    14    19    20    1
    15    20    21    1
    16    21    22   ar
    17    22    23   ar
    18    23    24   ar
    19    24    25   ar
    20    25    26   ar
    21    26    27   ar
    22    27    28   ar
    23    28    29   ar
    24     4     5    1
    25     5     6    1
    26    15    16   ar
    27    16    17   ar
    28    17    18   ar
    29    18    10    1
    30    18    13   ar
    31     6     1    1
    32    29    21   ar
    33    28    24   ar
@<TRIPOS>MOLECULE
*****
 29 33 0 0 0
SMALL
GASTEIGER

@<TRIPOS>ATOM
      1 N         141.0741  138.2363  164.5984 N.3     1  UNL1       -0.2700
      2 C         141.8939  138.6690  165.7777 C.3     1  UNL1        0.0897
      3 C         143.2825  139.1980  165.5723 C.3     1  UNL1        0.0897
      4 N         143.8512  139.2942  164.1877 N.3     1  UNL1       -0.2700
      5 C         143.0314  138.8615  163.0084 C.3     1  UNL1        0.0897
      6 C         141.6429  138.3325  163.2137 C.3     1  UNL1        0.0897
      7 C         139.6856  137.7073  164.8037 C.3     1  UNL1        0.0769
      8 C         138.6012  138.6186  165.2973 C.3     1  UNL1        0.0437
      9 O         137.8760  145.0513  162.3431 O.2     1  UNL1       -0.2449
     10 C         138.4201  144.3264  163.5383 C.2     1  UNL1        0.3413
     11 O         139.1282  144.9531  164.7027 O.3     1  UNL1       -0.4404
     12 C         139.4973  143.8615  165.6629 C.3     1  UNL1        0.2356
     13 C         139.0174  142.5600  165.0920 C.ar    1  UNL1        0.0272
     14 C         139.1006  141.1505  165.5981 C.ar    1  UNL1       -0.0047
     15 C         138.5180  140.0283  164.7912 C.ar    1  UNL1       -0.0210
     16 C         137.8522  140.3156  163.4781 C.ar    1  UNL1       -0.0040
     17 C         137.7690  141.7251  162.9719 C.ar    1  UNL1        0.0059
     18 C         138.3516  142.8473  163.7789 C.ar    1  UNL1        0.0751
     19 C         145.2397  139.8231  163.9824 C.3     1  UNL1        0.0769
     20 C         145.4967  141.2997  164.0446 C.3     1  UNL1        0.0437
     21 C         144.4672  142.2624  163.5313 C.ar    1  UNL1       -0.0191
     22 C         143.5886  143.0048  164.4940 C.ar    1  UNL1       -0.0025
     23 C         142.5592  143.9675  163.9807 C.ar    1  UNL1        0.0238
     24 C         142.4084  144.1877  162.5047 C.ar    1  UNL1        0.1431
     25 N         141.4887  145.0667  161.7098 N.ar    1  UNL1       -0.0483
     26 O         141.7989  144.8675  160.2559 O.2     1  UNL1       -0.2415
     27 N         142.9103  143.8654  160.1521 N.ar    1  UNL1       -0.0483
     28 C         143.2869  143.4453  161.5419 C.ar    1  UNL1        0.1428
     29 C         144.3163  142.4826  162.0552 C.ar    1  UNL1        0.0199
@<TRIPOS>BOND
     1     9    10    2
     2    10    11    1
     3    11    12    1
     4    12    13    1
     5    13    14   ar
     6    14    15   ar
     7    15     8    1
     8     8     7    1
     9     7     1    1
    10     1     2    1
    11     2     3    1
    12     3     4    1
    13     4    19    1
    14    19    20    1
    15    20    21    1
    16    21    22   ar
    17    22    23   ar
    18    23    24   ar
    19    24    25   ar
    20    25    26   ar
    21    26    27   ar
    22    27    28   ar
    23    28    29   ar
    24     4     5    1
    25     5     6    1
    26    15    16   ar
    27    16    17   ar
    28    17    18   ar
    29    18    10    1
    30    18    13   ar
    31     6     1    1
    32    29    21   ar
    33    28    24   ar
@<TRIPOS>MOLECULE
*****
 29 33 0 0 0
SMALL
GASTEIGER

@<TRIPOS>ATOM
      1 N         140.0178  137.9297  164.2588 N.3     1  UNL1       -0.2700
      2 C         139.9450  137.8369  162.7635 C.3     1  UNL1        0.0897
      3 C         141.2020  137.8906  161.9466 C.3     1  UNL1        0.0897
      4 N         142.5317  138.0373  162.6251 N.3     1  UNL1       -0.2700
      5 C         142.6045  138.1302  164.1204 C.3     1  UNL1        0.0897
      6 C         141.3476  138.0764  164.9373 C.3     1  UNL1        0.0897
      7 C         138.7609  137.8760  165.0757 C.3     1  UNL1        0.0769
      8 C         138.2479  139.1164  165.7451 C.3     1  UNL1        0.0437
      9 O         138.3598  145.2200  162.0893 O.2     1  UNL1       -0.2449
     10 C         139.0006  144.4831  163.2279 C.2     1  UNL1        0.3413
     11 O         140.1119  144.9952  164.0954 O.3     1  UNL1       -0.4404
     12 C         140.4407  143.9333  165.1025 C.3     1  UNL1        0.2356
     13 C         139.5325  142.7649  164.8574 C.ar    1  UNL1        0.0272
     14 C         139.4010  141.4355  165.5395 C.ar    1  UNL1       -0.0047
     15 C         138.3794  140.4459  165.0630 C.ar    1  UNL1       -0.0210
     16 C         137.4894  140.7857  163.9044 C.ar    1  UNL1       -0.0040
     17 C         137.6209  142.1151  163.2223 C.ar    1  UNL1        0.0059
     18 C         138.6425  143.1047  163.6988 C.ar    1  UNL1        0.0751
     19 C         143.7886  138.0911  161.8082 C.3     1  UNL1        0.0769
     20 C         144.2202  139.3831  161.1802 C.3     1  UNL1        0.0437
     21 C         144.2459  140.6417  161.9960 C.ar    1  UNL1       -0.0191
     22 C         144.9985  140.6796  163.2929 C.ar    1  UNL1       -0.0025
     23 C         145.0242  141.9382  164.1086 C.ar    1  UNL1        0.0238
     24 C         144.2973  143.1588  163.6272 C.ar    1  UNL1        0.1431
     25 N         144.1449  144.5319  164.2117 N.ar    1  UNL1       -0.0483
     26 O         143.2981  145.3426  163.2759 O.2     1  UNL1       -0.2415
     27 N         142.9273  144.4705  162.1131 N.ar    1  UNL1       -0.0483
     28 C         143.5448  143.1209  162.3303 C.ar    1  UNL1        0.1428
     29 C         143.5191  141.8624  161.5146 C.ar    1  UNL1        0.0199
@<TRIPOS>BOND
     1     9    10    2
     2    10    11    1
     3    11    12    1
     4    12    13    1
     5    13    14   ar
     6    14    15   ar
     7    15     8    1
     8     8     7    1
     9     7     1    1
    10     1     2    1
    11     2     3    1
    12     3     4    1
    13     4    19    1
    14    19    20    1
    15    20    21    1
    16    21    22   ar
    17    22    23   ar
    18    23    24   ar
    19    24    25   ar
    20    25    26   ar
    21    26    27   ar
    22    27    28   ar
    23    28    29   ar
    24     4     5    1
    25     5     6    1
    26    15    16   ar
    27    16    17   ar
    28    17    18   ar
    29    18    10    1
    30    18    13   ar
    31     6     1    1
    32    29    21   ar
    33    28    24   ar
@<TRIPOS>MOLECULE
*****
 29 33 0 0 0
SMALL
GASTEIGER

@<TRIPOS>ATOM
      1 N         144.1939  140.0818  163.9878 N.3     1  UNL1       -0.2700
      2 C         143.6926  139.3471  162.7800 C.3     1  UNL1        0.0897
      3 C         142.6172  138.3114  162.9250 C.3     1  UNL1        0.0897
      4 N         142.0431  138.0106  164.2777 N.3     1  UNL1       -0.2700
      5 C         142.5444  138.7454  165.4855 C.3     1  UNL1        0.0897
      6 C         143.6198  139.7810  165.3406 C.3     1  UNL1        0.0897
      7 C         145.2693  141.1174  163.8429 C.3     1  UNL1        0.0769
      8 C         145.0083  142.5336  164.2628 C.3     1  UNL1        0.0437
      9 O         139.3272  145.9251  161.6444 O.2     1  UNL1       -0.2449
     10 C         139.8521  145.2020  162.8493 C.2     1  UNL1        0.3413
     11 O         139.1042  144.9585  164.1266 O.3     1  UNL1       -0.4404
     12 C         140.0069  144.2016  165.0551 C.3     1  UNL1        0.2356
     13 C         141.3127  143.9773  164.3518 C.ar    1  UNL1        0.0272
     14 C         142.5764  143.2900  164.7765 C.ar    1  UNL1       -0.0047
     15 C         143.7445  143.2210  163.8380 C.ar    1  UNL1       -0.0210
     16 C         143.6488  143.8393  162.4747 C.ar    1  UNL1       -0.0040
     17 C         142.3850  144.5266  162.0500 C.ar    1  UNL1        0.0059
     18 C         141.2170  144.5957  162.9885 C.ar    1  UNL1        0.0751
     19 C         140.9677  136.9751  164.4226 C.3     1  UNL1        0.0769
     20 C         139.5725  137.3885  164.7868 C.3     1  UNL1        0.0437
     21 C         139.0290  138.7006  164.3041 C.ar    1  UNL1       -0.0191
     22 C         138.6180  139.7514  165.2925 C.ar    1  UNL1       -0.0025
     23 C         138.0745  141.0634  164.8098 C.ar    1  UNL1        0.0238
     24 C         137.9420  141.3247  163.3387 C.ar    1  UNL1        0.1431
     25 N         137.4438  142.5135  162.5713 N.ar    1  UNL1       -0.0483
     26 O         137.5468  142.1973  161.1087 O.2     1  UNL1       -0.2415
     27 N         138.1088  140.8133  160.9721 N.ar    1  UNL1       -0.0483
     28 C         138.3530  140.2740  162.3503 C.ar    1  UNL1        0.1428
     29 C         138.8965  138.9619  162.8330 C.ar    1  UNL1        0.0199
@<TRIPOS>BOND
     1     9    10    2
     2    10    11    1
     3    11    12    1
     4    12    13    1
     5    13    14   ar
     6    14    15   ar
     7    15     8    1
     8     8     7    1
     9     7     1    1
    10     1     2    1
    11     2     3    1
    12     3     4    1
    13     4    19    1
    14    19    20    1
    15    20    21    1
    16    21    22   ar
    17    22    23   ar
    18    23    24   ar
    19    24    25   ar
    20    25    26   ar
    21    26    27   ar
    22    27    28   ar
    23    28    29   ar
    24     4     5    1
    25     5     6    1
    26    15    16   ar
    27    16    17   ar
    28    17    18   ar
    29    18    10    1
    30    18    13   ar
    31     6     1    1
    32    29    21   ar
    33    28    24   ar
@<TRIPOS>MOLECULE
*****
 29 33 0 0 0
SMALL
GASTEIGER

@<TRIPOS>ATOM
      1 N         139.7171  138.4473  162.2751 N.3     1  UNL1       -0.2700
      2 C         139.3788  137.6335  163.4889 C.3     1  UNL1        0.0897
      3 C         140.3533  137.5413  164.6255 C.3     1  UNL1        0.0897
      4 N         141.6661  138.2629  164.5483 N.3     1  UNL1       -0.2700
      5 C         142.0044  139.0767  163.3346 C.3     1  UNL1        0.0897
      6 C         141.0299  139.1689  162.1980 C.3     1  UNL1        0.0897
      7 C         138.7427  138.5396  161.1385 C.3     1  UNL1        0.0769
      8 C         137.7604  139.6719  161.0827 C.3     1  UNL1        0.0437
      9 O         138.4722  145.1434  165.5757 O.2     1  UNL1       -0.2449
     10 C         138.7717  144.6803  164.1808 C.2     1  UNL1        0.3413
     11 O         139.4805  145.4718  163.1221 O.3     1  UNL1       -0.4404
     12 C         139.5618  144.6249  161.8867 C.3     1  UNL1        0.2356
     13 C         138.9032  143.3100  162.1819 C.ar    1  UNL1        0.0272
     14 C         138.6851  142.0859  161.3429 C.ar    1  UNL1       -0.0047
     15 C         137.9786  140.8960  161.9217 C.ar    1  UNL1       -0.0210
     16 C         137.4903  140.9302  163.3396 C.ar    1  UNL1       -0.0040
     17 C         137.7084  142.1543  164.1787 C.ar    1  UNL1        0.0059
     18 C         138.4149  143.3442  163.5998 C.ar    1  UNL1        0.0751
     19 C         142.6405  138.1706  165.6849 C.3     1  UNL1        0.0769
     20 C         143.0165  139.4033  166.4525 C.3     1  UNL1        0.0437
     21 C         142.0884  139.9484  167.4973 C.ar    1  UNL1       -0.0191
     22 C         140.6075  139.9478  167.2590 C.ar    1  UNL1       -0.0025
     23 C         139.6795  140.4929  168.3038 C.ar    1  UNL1        0.0238
     24 C         140.2324  141.0386  169.5869 C.ar    1  UNL1        0.1431
     25 N         139.5688  141.6374  170.7916 N.ar    1  UNL1       -0.0483
     26 O         140.6396  142.0081  171.7744 O.2     1  UNL1       -0.2415
     27 N         141.9650  141.6384  171.1772 N.ar    1  UNL1       -0.0483
     28 C         141.7134  141.0393  169.8253 C.ar    1  UNL1        0.1428
     29 C         142.6413  140.4942  168.7805 C.ar    1  UNL1        0.0199
@<TRIPOS>BOND
     1     9    10    2
     2    10    11    1
     3    11    12    1
     4    12    13    1
     5    13    14   ar
     6    14    15   ar
     7    15     8    1
     8     8     7    1
     9     7     1    1
    10     1     2    1
    11     2     3    1
    12     3     4    1
    13     4    19    1
    14    19    20    1
    15    20    21    1
    16    21    22   ar
    17    22    23   ar
    18    23    24   ar
    19    24    25   ar
    20    25    26   ar
    21    26    27   ar
    22    27    28   ar
    23    28    29   ar
    24     4     5    1
    25     5     6    1
    26    15    16   ar
    27    16    17   ar
    28    17    18   ar
    29    18    10    1
    30    18    13   ar
    31     6     1    1
    32    29    21   ar
    33    28    24   ar
