@<TRIPOS>MOLECULE
*****
 32 36 0 0 0
SMALL
GASTEIGER

@<TRIPOS>ATOM
      1 C         138.8548  137.5221  163.3291 C.3     1  UNL1        0.1148
      2 N         139.3992  138.7171  162.6042 N.am    1  UNL1       -0.2790
      3 C         139.1124  140.0984  163.1140 C.2     1  UNL1        0.2301
      4 O         139.6569  141.2934  162.3890 O.2     1  UNL1       -0.2745
      5 C         140.2305  138.5309  161.3696 C.3     1  UNL1        0.0782
      6 C         139.6174  138.7311  160.0154 C.3     1  UNL1        0.0372
      7 C         140.4487  138.5449  158.7807 C.3     1  UNL1        0.0741
      8 N         141.8931  138.1584  158.9003 N.3     1  UNL1       -0.2671
      9 C         142.5062  137.9582  160.2546 C.3     1  UNL1        0.0741
     10 C         141.6749  138.1445  161.4892 C.3     1  UNL1        0.0372
     11 C         142.7244  137.9722  157.6657 C.3     1  UNL1        0.1255
     12 C         142.7137  136.6563  156.9458 C.ar    1  UNL1        0.1037
     13 N         143.7256  135.5596  157.0983 N.ar    1  UNL1       -0.2460
     14 C         143.3265  134.4315  156.1937 C.ar    1  UNL1        0.0612
     15 C         142.0680  134.8311  155.4821 C.ar    1  UNL1        0.0219
     16 S         141.6893  136.2061  155.9469 S.2     1  UNL1       -0.0741
     17 C         141.4295  133.8914  154.5028 C.3     1  UNL1        0.0342
     18 C         142.0495  132.5520  154.2351 C.3     1  UNL1        0.0057
     19 C         143.3080  132.1524  154.9468 C.3     1  UNL1        0.0067
     20 C         143.9465  133.0922  155.9261 C.3     1  UNL1        0.0460
     21 C         138.2812  140.2847  164.3486 C.3     1  UNL1        0.1116
     22 C         138.9333  140.6863  165.6383 C.ar    1  UNL1       -0.0130
     23 C         138.8978  139.7595  166.8171 C.ar    1  UNL1       -0.0022
     24 C         139.5500  140.1611  168.1069 C.ar    1  UNL1        0.0190
     25 C         140.2376  141.4895  168.2177 C.ar    1  UNL1        0.0862
     26 C         140.2732  142.4163  167.0389 C.ar    1  UNL1        0.0190
     27 C         139.6210  142.0147  165.7492 C.ar    1  UNL1       -0.0022
     28 N         140.8898  141.8911  169.5075 N.ar    1  UNL1       -0.1886
     29 C         142.0659  142.8108  169.6518 C.ar    1  UNL1        0.2258
     30 N         142.3834  142.9317  171.1129 N.ar    1  UNL1       -0.1045
     31 N         141.4034  142.0867  171.8715 N.ar    1  UNL1       -0.0222
     32 N         140.4803  141.4436  170.8793 N.ar    1  UNL1       -0.0385
@<TRIPOS>BOND
     1     1     2    1
     2     2     3   am
     3     3     4    2
     4     3    21    1
     5    21    22    1
     6    22    23   ar
     7    23    24   ar
     8    24    25   ar
     9    25    28    1
    10    28    29   ar
    11    29    30   ar
    12    30    31   ar
    13    31    32   ar
    14    25    26   ar
    15    26    27   ar
    16     2     5    1
    17     5     6    1
    18     6     7    1
    19     7     8    1
    20     8    11    1
    21    11    12    1
    22    12    13   ar
    23    13    14   ar
    24    14    15   ar
    25    15    16   ar
    26    15    17    1
    27    17    18    1
    28    18    19    1
    29    19    20    1
    30     8     9    1
    31     9    10    1
    32    27    22   ar
    33    10     5    1
    34    32    28   ar
    35    16    12   ar
    36    20    14    1
@<TRIPOS>MOLECULE
*****
 32 36 0 0 0
SMALL
GASTEIGER

@<TRIPOS>ATOM
      1 C         139.0524  141.1892  160.9418 C.3     1  UNL1        0.1148
      2 N         139.4492  139.7542  161.1240 N.am    1  UNL1       -0.2790
      3 C         138.9694  138.9896  162.3220 C.2     1  UNL1        0.2301
      4 O         139.3662  137.5545  162.5042 O.2     1  UNL1       -0.2745
      5 C         140.3259  139.0836  160.1082 C.3     1  UNL1        0.0782
      6 C         139.7827  138.7541  158.7494 C.3     1  UNL1        0.0372
      7 C         140.6594  138.0836  157.7335 C.3     1  UNL1        0.0741
      8 N         142.0793  137.7426  158.0766 N.3     1  UNL1       -0.2671
      9 C         142.6225  138.0722  159.4354 C.3     1  UNL1        0.0741
     10 C         141.7458  138.7427  160.4512 C.3     1  UNL1        0.0372
     11 C         142.9560  137.0722  157.0608 C.3     1  UNL1        0.1255
     12 C         142.7448  135.6253  156.7260 C.ar    1  UNL1        0.1037
     13 N         143.4090  134.4592  157.3962 N.ar    1  UNL1       -0.2460
     14 C         142.9071  133.2037  156.7467 C.ar    1  UNL1        0.0612
     15 C         141.9327  133.5939  155.6751 C.ar    1  UNL1        0.0219
     16 S         141.8324  135.0905  155.6624 S.2     1  UNL1       -0.0741
     17 C         141.2626  132.5360  154.8494 C.3     1  UNL1        0.0342
     18 C         141.5670  131.0879  155.0953 C.3     1  UNL1        0.0057
     19 C         142.5414  130.6978  156.1669 C.3     1  UNL1        0.0067
     20 C         143.2115  131.7557  156.9926 C.3     1  UNL1        0.0460
     21 C         138.0927  139.6600  163.3379 C.3     1  UNL1        0.1116
     22 C         138.5867  139.8593  164.7401 C.ar    1  UNL1       -0.0130
     23 C         138.0686  138.9913  165.8483 C.ar    1  UNL1       -0.0022
     24 C         138.5626  139.1906  167.2505 C.ar    1  UNL1        0.0190
     25 C         139.5746  140.2580  167.5446 C.ar    1  UNL1        0.0862
     26 C         140.0927  141.1260  166.4364 C.ar    1  UNL1        0.0190
     27 C         139.5987  140.9267  165.0341 C.ar    1  UNL1       -0.0022
     28 N         140.0686  140.4573  168.9468 N.ar    1  UNL1       -0.1886
     29 C         141.3326  141.1601  169.3448 C.ar    1  UNL1        0.2258
     30 N         141.4305  141.1260  170.8412 N.ar    1  UNL1       -0.1045
     31 N         140.2271  140.4020  171.3681 N.ar    1  UNL1       -0.0222
     32 N         139.3854  139.9888  170.1972 N.ar    1  UNL1       -0.0385
@<TRIPOS>BOND
     1     1     2    1
     2     2     3   am
     3     3     4    2
     4     3    21    1
     5    21    22    1
     6    22    23   ar
     7    23    24   ar
     8    24    25   ar
     9    25    28    1
    10    28    29   ar
    11    29    30   ar
    12    30    31   ar
    13    31    32   ar
    14    25    26   ar
    15    26    27   ar
    16     2     5    1
    17     5     6    1
    18     6     7    1
    19     7     8    1
    20     8    11    1
    21    11    12    1
    22    12    13   ar
    23    13    14   ar
    24    14    15   ar
    25    15    16   ar
    26    15    17    1
    27    17    18    1
    28    18    19    1
    29    19    20    1
    30     8     9    1
    31     9    10    1
    32    27    22   ar
    33    10     5    1
    34    32    28   ar
    35    16    12   ar
    36    20    14    1
@<TRIPOS>MOLECULE
*****
 32 36 0 0 0
SMALL
GASTEIGER

@<TRIPOS>ATOM
      1 C         144.8131  139.7490  164.0173 C.3     1  UNL1        0.1148
      2 N         143.6052  139.7139  163.1287 N.am    1  UNL1       -0.2790
      3 C         142.3729  138.9795  163.5668 C.2     1  UNL1        0.2301
      4 O         141.1649  138.9445  162.6781 O.2     1  UNL1       -0.2745
      5 C         143.6297  140.4132  161.8019 C.3     1  UNL1        0.0782
      6 C         143.8388  139.6255  160.5426 C.3     1  UNL1        0.0372
      7 C         143.8632  140.3248  159.2158 C.3     1  UNL1        0.0741
      8 N         143.6786  141.8119  159.1483 N.3     1  UNL1       -0.2671
      9 C         143.4694  142.5996  160.4076 C.3     1  UNL1        0.0741
     10 C         143.4450  141.9003  161.7343 C.3     1  UNL1        0.0372
     11 C         143.7030  142.5112  157.8215 C.3     1  UNL1        0.1255
     12 C         144.8698  142.3258  156.8973 C.ar    1  UNL1        0.1037
     13 N         146.3178  142.3610  157.2874 N.ar    1  UNL1       -0.2460
     14 C         147.1365  142.1296  156.0520 C.ar    1  UNL1        0.0612
     15 C         146.1944  141.9514  154.8983 C.ar    1  UNL1        0.0219
     16 S         144.7936  142.0726  155.4208 S.2     1  UNL1       -0.0741
     17 C         146.7339  141.7017  153.5212 C.3     1  UNL1        0.0342
     18 C         148.2154  141.6302  153.2977 C.3     1  UNL1        0.0057
     19 C         149.1574  141.8084  154.4513 C.3     1  UNL1        0.0067
     20 C         148.6180  142.0581  155.8284 C.3     1  UNL1        0.0460
     21 C         142.3484  138.2802  164.8936 C.3     1  UNL1        0.1116
     22 C         141.9483  139.0303  166.1294 C.ar    1  UNL1       -0.0130
     23 C         142.9403  139.2372  167.2353 C.ar    1  UNL1       -0.0022
     24 C         142.5402  139.9872  168.4712 C.ar    1  UNL1        0.0190
     25 C         141.1480  140.5303  168.6012 C.ar    1  UNL1        0.0862
     26 C         140.1560  140.3234  167.4953 C.ar    1  UNL1        0.0190
     27 C         140.5561  139.5734  166.2594 C.ar    1  UNL1       -0.0022
     28 N         140.7479  141.2804  169.8370 N.ar    1  UNL1       -0.1886
     29 C         139.8208  142.4582  169.8922 C.ar    1  UNL1        0.2258
     30 N         139.7046  142.8901  171.3240 N.ar    1  UNL1       -0.1045
     31 N         140.5598  141.9791  172.1538 N.ar    1  UNL1       -0.0222
     32 N         141.2047  140.9842  171.2348 N.ar    1  UNL1       -0.0385
@<TRIPOS>BOND
     1     1     2    1
     2     2     3   am
     3     3     4    2
     4     3    21    1
     5    21    22    1
     6    22    23   ar
     7    23    24   ar
     8    24    25   ar
     9    25    28    1
    10    28    29   ar
    11    29    30   ar
    12    30    31   ar
    13    31    32   ar
    14    25    26   ar
    15    26    27   ar
    16     2     5    1
    17     5     6    1
    18     6     7    1
    19     7     8    1
    20     8    11    1
    21    11    12    1
    22    12    13   ar
    23    13    14   ar
    24    14    15   ar
    25    15    16   ar
    26    15    17    1
    27    17    18    1
    28    18    19    1
    29    19    20    1
    30     8     9    1
    31     9    10    1
    32    27    22   ar
    33    10     5    1
    34    32    28   ar
    35    16    12   ar
    36    20    14    1
@<TRIPOS>MOLECULE
*****
 32 36 0 0 0
SMALL
GASTEIGER

@<TRIPOS>ATOM
      1 C         138.4680  137.6633  162.6788 C.3     1  UNL1        0.1148
      2 N         139.1928  138.8337  162.0833 N.am    1  UNL1       -0.2790
      3 C         139.0162  140.2028  162.6702 C.2     1  UNL1        0.2301
      4 O         139.7411  141.3733  162.0746 O.2     1  UNL1       -0.2745
      5 C         140.0943  138.6351  160.9009 C.3     1  UNL1        0.0782
      6 C         141.5360  138.2770  161.1088 C.3     1  UNL1        0.0372
      7 C         142.4374  138.0784  159.9264 C.3     1  UNL1        0.0741
      8 N         141.8972  138.2380  158.5362 N.3     1  UNL1       -0.2671
      9 C         140.4554  138.5962  158.3284 C.3     1  UNL1        0.0741
     10 C         139.5540  138.7948  159.5107 C.3     1  UNL1        0.0372
     11 C         142.7985  138.0394  157.3538 C.3     1  UNL1        0.1255
     12 C         142.7603  136.7491  156.5899 C.ar    1  UNL1        0.1037
     13 N         142.2602  136.5694  155.1872 N.ar    1  UNL1       -0.2460
     14 C         142.4063  135.1211  154.8249 C.ar    1  UNL1        0.0612
     15 C         142.9966  134.4057  156.0037 C.ar    1  UNL1        0.0219
     16 S         143.2154  135.4118  157.0945 S.2     1  UNL1       -0.0741
     17 C         143.2587  132.9306  155.9316 C.3     1  UNL1        0.0342
     18 C         142.9304  132.1708  154.6806 C.3     1  UNL1        0.0057
     19 C         142.3400  132.8863  153.5017 C.3     1  UNL1        0.0067
     20 C         142.0780  134.3614  153.5739 C.3     1  UNL1        0.0460
     21 C         138.1148  140.4015  163.8525 C.3     1  UNL1        0.1116
     22 C         138.6985  140.5191  165.2293 C.ar    1  UNL1       -0.0130
     23 C         138.4472  139.4442  166.2448 C.ar    1  UNL1       -0.0022
     24 C         139.0309  139.5618  167.6215 C.ar    1  UNL1        0.0190
     25 C         139.8659  140.7543  167.9828 C.ar    1  UNL1        0.0862
     26 C         140.1172  141.8292  166.9673 C.ar    1  UNL1        0.0190
     27 C         139.5335  141.7116  165.5905 C.ar    1  UNL1       -0.0022
     28 N         140.4496  140.8719  169.3595 N.ar    1  UNL1       -0.1886
     29 C         141.8817  140.6290  169.7338 C.ar    1  UNL1        0.2258
     30 N         142.0208  140.8601  171.2093 N.ar    1  UNL1       -0.1045
     31 N         140.6747  141.2458  171.7471 N.ar    1  UNL1       -0.0222
     32 N         139.7036  141.2531  170.6038 N.ar    1  UNL1       -0.0385
@<TRIPOS>BOND
     1     1     2    1
     2     2     3   am
     3     3     4    2
     4     3    21    1
     5    21    22    1
     6    22    23   ar
     7    23    24   ar
     8    24    25   ar
     9    25    28    1
    10    28    29   ar
    11    29    30   ar
    12    30    31   ar
    13    31    32   ar
    14    25    26   ar
    15    26    27   ar
    16     2     5    1
    17     5     6    1
    18     6     7    1
    19     7     8    1
    20     8    11    1
    21    11    12    1
    22    12    13   ar
    23    13    14   ar
    24    14    15   ar
    25    15    16   ar
    26    15    17    1
    27    17    18    1
    28    18    19    1
    29    19    20    1
    30     8     9    1
    31     9    10    1
    32    27    22   ar
    33    10     5    1
    34    32    28   ar
    35    16    12   ar
    36    20    14    1
@<TRIPOS>MOLECULE
*****
 32 36 0 0 0
SMALL
GASTEIGER

@<TRIPOS>ATOM
      1 C         138.0262  140.4582  161.1625 C.3     1  UNL1        0.1148
      2 N         138.2260  141.9436  161.1032 N.am    1  UNL1       -0.2790
      3 C         137.8637  142.7968  162.2825 C.2     1  UNL1        0.2301
      4 O         138.0635  144.2823  162.2231 O.2     1  UNL1       -0.2745
      5 C         138.7880  142.5759  159.8644 C.3     1  UNL1        0.0782
      6 C         138.1349  142.3333  158.5361 C.3     1  UNL1        0.0372
      7 C         138.6969  142.9656  157.2973 C.3     1  UNL1        0.0741
      8 N         139.9121  143.8405  157.3870 N.3     1  UNL1       -0.2671
      9 C         140.5651  144.0831  158.7155 C.3     1  UNL1        0.0741
     10 C         140.0031  143.4508  159.9541 C.3     1  UNL1        0.0372
     11 C         140.4741  144.4727  156.1484 C.3     1  UNL1        0.1255
     12 C         140.1414  145.8972  155.8163 C.ar    1  UNL1        0.1037
     13 N         140.6468  146.6678  154.6327 N.ar    1  UNL1       -0.2460
     14 C         140.0627  148.0480  154.6944 C.ar    1  UNL1        0.0612
     15 C         139.1963  148.1305  155.9161 C.ar    1  UNL1        0.0219
     16 S         139.2450  146.8012  156.6094 S.2     1  UNL1       -0.0741
     17 C         138.4750  149.4053  156.2394 C.3     1  UNL1        0.0342
     18 C         138.6201  150.5976  155.3410 C.3     1  UNL1        0.0057
     19 C         139.4865  150.5151  154.1193 C.3     1  UNL1        0.0067
     20 C         140.2078  149.2403  153.7960 C.3     1  UNL1        0.0460
     21 C         137.3017  142.1646  163.5212 C.3     1  UNL1        0.1116
     22 C         138.2247  141.6566  164.5889 C.ar    1  UNL1       -0.0130
     23 C         139.2699  142.5622  165.1698 C.ar    1  UNL1       -0.0022
     24 C         140.1929  142.0542  166.2375 C.ar    1  UNL1        0.0190
     25 C         140.0707  140.6407  166.7243 C.ar    1  UNL1        0.0862
     26 C         139.0255  139.7352  166.1434 C.ar    1  UNL1        0.0190
     27 C         138.1025  140.2431  165.0757 C.ar    1  UNL1       -0.0022
     28 N         140.9937  140.1327  167.7920 N.ar    1  UNL1       -0.1886
     29 C         142.4418  139.7847  167.6133 C.ar    1  UNL1        0.2258
     30 N         142.9738  139.3204  168.9368 N.ar    1  UNL1       -0.1045
     31 N         141.8544  139.3815  169.9335 N.ar    1  UNL1       -0.0222
     32 N         140.6307  139.8835  169.2260 N.ar    1  UNL1       -0.0385
@<TRIPOS>BOND
     1     1     2    1
     2     2     3   am
     3     3     4    2
     4     3    21    1
     5    21    22    1
     6    22    23   ar
     7    23    24   ar
     8    24    25   ar
     9    25    28    1
    10    28    29   ar
    11    29    30   ar
    12    30    31   ar
    13    31    32   ar
    14    25    26   ar
    15    26    27   ar
    16     2     5    1
    17     5     6    1
    18     6     7    1
    19     7     8    1
    20     8    11    1
    21    11    12    1
    22    12    13   ar
    23    13    14   ar
    24    14    15   ar
    25    15    16   ar
    26    15    17    1
    27    17    18    1
    28    18    19    1
    29    19    20    1
    30     8     9    1
    31     9    10    1
    32    27    22   ar
    33    10     5    1
    34    32    28   ar
    35    16    12   ar
    36    20    14    1
@<TRIPOS>MOLECULE
*****
 32 36 0 0 0
SMALL
GASTEIGER

@<TRIPOS>ATOM
      1 C         141.3954  143.7613  160.2722 C.3     1  UNL1        0.1148
      2 N         139.9444  143.4330  160.4644 N.am    1  UNL1       -0.2790
      3 C         139.2546  143.8039  161.7437 C.2     1  UNL1        0.2301
      4 O         137.8036  143.4756  161.9359 O.2     1  UNL1       -0.2745
      5 C         139.1832  142.7339  159.3772 C.3     1  UNL1        0.0782
      6 C         138.9641  143.4141  158.0584 C.3     1  UNL1        0.0372
      7 C         138.2028  142.7149  156.9713 C.3     1  UNL1        0.0741
      8 N         137.6608  141.3356  157.2030 N.3     1  UNL1       -0.2671
      9 C         137.8801  140.6554  158.5219 C.3     1  UNL1        0.0741
     10 C         138.6412  141.3546  159.6090 C.3     1  UNL1        0.0372
     11 C         136.8997  140.6364  156.1160 C.3     1  UNL1        0.1255
     12 C         135.4008  140.5963  156.1564 C.ar    1  UNL1        0.1037
     13 N         134.5657  139.7563  157.0768 N.ar    1  UNL1       -0.2460
     14 C         133.1226  140.0300  156.7728 C.ar    1  UNL1        0.0612
     15 C         133.0657  141.0392  155.6645 C.ar    1  UNL1        0.0219
     16 S         134.4736  141.3891  155.2836 S.2     1  UNL1       -0.0741
     17 C         131.7391  141.5090  155.1454 C.3     1  UNL1        0.0342
     18 C         130.4695  140.9697  155.7346 C.3     1  UNL1        0.0057
     19 C         130.5265  139.9605  156.8429 C.3     1  UNL1        0.0067
     20 C         131.8530  139.4907  157.3620 C.3     1  UNL1        0.0460
     21 C         140.0157  144.5030  162.8308 C.3     1  UNL1        0.1116
     22 C         140.5630  143.7191  163.9867 C.ar    1  UNL1       -0.0130
     23 C         142.0445  143.6480  164.2103 C.ar    1  UNL1       -0.0022
     24 C         142.5918  142.8640  165.3661 C.ar    1  UNL1        0.0190
     25 C         141.6575  142.1512  166.2983 C.ar    1  UNL1        0.0862
     26 C         140.1761  142.2223  166.0747 C.ar    1  UNL1        0.0190
     27 C         139.6288  143.0062  164.9188 C.ar    1  UNL1       -0.0022
     28 N         142.2048  141.3672  167.4541 N.ar    1  UNL1       -0.1886
     29 C         142.9537  141.9301  168.6256 C.ar    1  UNL1        0.2258
     30 N         143.3110  140.7936  169.5369 N.ar    1  UNL1       -0.1045
     31 N         142.7829  139.5282  168.9287 N.ar    1  UNL1       -0.0222
     32 N         142.0993  139.8827  167.6415 N.ar    1  UNL1       -0.0385
@<TRIPOS>BOND
     1     1     2    1
     2     2     3   am
     3     3     4    2
     4     3    21    1
     5    21    22    1
     6    22    23   ar
     7    23    24   ar
     8    24    25   ar
     9    25    28    1
    10    28    29   ar
    11    29    30   ar
    12    30    31   ar
    13    31    32   ar
    14    25    26   ar
    15    26    27   ar
    16     2     5    1
    17     5     6    1
    18     6     7    1
    19     7     8    1
    20     8    11    1
    21    11    12    1
    22    12    13   ar
    23    13    14   ar
    24    14    15   ar
    25    15    16   ar
    26    15    17    1
    27    17    18    1
    28    18    19    1
    29    19    20    1
    30     8     9    1
    31     9    10    1
    32    27    22   ar
    33    10     5    1
    34    32    28   ar
    35    16    12   ar
    36    20    14    1
@<TRIPOS>MOLECULE
*****
 32 36 0 0 0
SMALL
GASTEIGER

@<TRIPOS>ATOM
      1 C         137.3455  141.4944  162.3969 C.3     1  UNL1        0.1148
      2 N         138.7349  141.0258  162.0808 N.am    1  UNL1       -0.2790
      3 C         139.3810  139.9696  162.9276 C.2     1  UNL1        0.2301
      4 O         140.7704  139.5009  162.6115 O.2     1  UNL1       -0.2745
      5 C         139.4783  141.6133  160.9179 C.3     1  UNL1        0.0782
      6 C         139.2408  141.0880  159.5332 C.3     1  UNL1        0.0372
      7 C         139.9842  141.6756  158.3703 C.3     1  UNL1        0.0741
      8 N         140.9651  142.7885  158.5923 N.3     1  UNL1       -0.2671
      9 C         141.2026  143.3138  159.9771 C.3     1  UNL1        0.0741
     10 C         140.4592  142.7262  161.1399 C.3     1  UNL1        0.0372
     11 C         141.7085  143.3760  157.4295 C.3     1  UNL1        0.1255
     12 C         141.1720  144.5915  156.7332 C.ar    1  UNL1        0.1037
     13 N         140.1554  145.5467  157.2846 N.ar    1  UNL1       -0.2460
     14 C         139.9131  146.6108  156.2555 C.ar    1  UNL1        0.0612
     15 C         140.7800  146.3133  155.0681 C.ar    1  UNL1        0.0219
     16 S         141.5581  145.0653  155.3634 S.2     1  UNL1       -0.0741
     17 C         140.7489  147.2171  153.8714 C.3     1  UNL1        0.0342
     18 C         139.8509  148.4185  153.8622 C.3     1  UNL1        0.0057
     19 C         138.9840  148.7161  155.0496 C.3     1  UNL1        0.0067
     20 C         139.0151  147.8122  156.2462 C.3     1  UNL1        0.0460
     21 C         138.6377  139.3820  164.0904 C.3     1  UNL1        0.1116
     22 C         138.9892  139.7921  165.4898 C.ar    1  UNL1       -0.0130
     23 C         138.3742  139.0788  166.6572 C.ar    1  UNL1       -0.0022
     24 C         138.7257  139.4889  168.0566 C.ar    1  UNL1        0.0190
     25 C         139.6923  140.6122  168.2886 C.ar    1  UNL1        0.0862
     26 C         140.3073  141.3255  167.1211 C.ar    1  UNL1        0.0190
     27 C         139.9558  140.9154  165.7218 C.ar    1  UNL1       -0.0022
     28 N         140.0438  141.0223  169.6879 N.ar    1  UNL1       -0.1886
     29 C         139.8950  142.3978  170.2674 C.ar    1  UNL1        0.2258
     30 N         140.3651  142.3545  171.6911 N.ar    1  UNL1       -0.1045
     31 N         140.8045  140.9521  171.9917 N.ar    1  UNL1       -0.0222
     32 N         140.6060  140.1288  170.7536 N.ar    1  UNL1       -0.0385
@<TRIPOS>BOND
     1     1     2    1
     2     2     3   am
     3     3     4    2
     4     3    21    1
     5    21    22    1
     6    22    23   ar
     7    23    24   ar
     8    24    25   ar
     9    25    28    1
    10    28    29   ar
    11    29    30   ar
    12    30    31   ar
    13    31    32   ar
    14    25    26   ar
    15    26    27   ar
    16     2     5    1
    17     5     6    1
    18     6     7    1
    19     7     8    1
    20     8    11    1
    21    11    12    1
    22    12    13   ar
    23    13    14   ar
    24    14    15   ar
    25    15    16   ar
    26    15    17    1
    27    17    18    1
    28    18    19    1
    29    19    20    1
    30     8     9    1
    31     9    10    1
    32    27    22   ar
    33    10     5    1
    34    32    28   ar
    35    16    12   ar
    36    20    14    1
@<TRIPOS>MOLECULE
*****
 32 36 0 0 0
SMALL
GASTEIGER

@<TRIPOS>ATOM
      1 C         142.8740  142.2737  161.6525 C.3     1  UNL1        0.1148
      2 N         143.1291  140.7985  161.5605 N.am    1  UNL1       -0.2790
      3 C         143.8520  140.0918  162.6687 C.2     1  UNL1        0.2301
      4 O         144.1071  138.6164  162.5766 O.2     1  UNL1       -0.2745
      5 C         142.6613  140.0298  160.3603 C.3     1  UNL1        0.0782
      6 C         141.3642  139.2782  160.4098 C.3     1  UNL1        0.0372
      7 C         140.8964  138.5095  159.2096 C.3     1  UNL1        0.0741
      8 N         141.7259  138.4925  157.9599 N.3     1  UNL1       -0.2671
      9 C         143.0230  139.2442  157.9104 C.3     1  UNL1        0.0741
     10 C         143.4907  140.0128  159.1106 C.3     1  UNL1        0.0372
     11 C         141.2582  137.7239  156.7597 C.3     1  UNL1        0.1255
     12 C         141.8611  136.3874  156.4434 C.ar    1  UNL1        0.1037
     13 N         142.9712  135.7196  157.1995 N.ar    1  UNL1       -0.2460
     14 C         143.2559  134.4034  156.5388 C.ar    1  UNL1        0.0612
     15 C         142.3218  134.2577  155.3743 C.ar    1  UNL1        0.0219
     16 S         141.4597  135.4838  155.3153 S.2     1  UNL1       -0.0741
     17 C         142.3768  133.0273  154.5180 C.3     1  UNL1        0.0342
     18 C         143.3660  131.9427  154.8263 C.3     1  UNL1        0.0057
     19 C         144.3002  132.0885  155.9908 C.3     1  UNL1        0.0067
     20 C         144.2451  133.3188  156.8471 C.3     1  UNL1        0.0460
     21 C         144.3197  140.8604  163.8688 C.3     1  UNL1        0.1116
     22 C         143.4934  140.8722  165.1207 C.ar    1  UNL1       -0.0130
     23 C         142.7643  139.6336  165.5498 C.ar    1  UNL1       -0.0022
     24 C         141.9380  139.6454  166.8017 C.ar    1  UNL1        0.0190
     25 C         141.8408  140.8959  167.6244 C.ar    1  UNL1        0.0862
     26 C         142.5699  142.1345  167.1952 C.ar    1  UNL1        0.0190
     27 C         143.3962  142.1226  165.9434 C.ar    1  UNL1       -0.0022
     28 N         141.0145  140.9077  168.8762 N.ar    1  UNL1       -0.1886
     29 C         139.6254  140.3606  169.0209 C.ar    1  UNL1        0.2258
     30 N         139.1846  140.5835  170.4373 N.ar    1  UNL1       -0.1045
     31 N         140.3014  141.2683  171.1679 N.ar    1  UNL1       -0.0222
     32 N         141.4323  141.4687  170.2031 N.ar    1  UNL1       -0.0385
@<TRIPOS>BOND
     1     1     2    1
     2     2     3   am
     3     3     4    2
     4     3    21    1
     5    21    22    1
     6    22    23   ar
     7    23    24   ar
     8    24    25   ar
     9    25    28    1
    10    28    29   ar
    11    29    30   ar
    12    30    31   ar
    13    31    32   ar
    14    25    26   ar
    15    26    27   ar
    16     2     5    1
    17     5     6    1
    18     6     7    1
    19     7     8    1
    20     8    11    1
    21    11    12    1
    22    12    13   ar
    23    13    14   ar
    24    14    15   ar
    25    15    16   ar
    26    15    17    1
    27    17    18    1
    28    18    19    1
    29    19    20    1
    30     8     9    1
    31     9    10    1
    32    27    22   ar
    33    10     5    1
    34    32    28   ar
    35    16    12   ar
    36    20    14    1
@<TRIPOS>MOLECULE
*****
 32 36 0 0 0
SMALL
GASTEIGER

@<TRIPOS>ATOM
      1 C         144.7717  143.3854  163.1111 C.3     1  UNL1        0.1148
      2 N         143.5542  142.7516  162.5060 N.am    1  UNL1       -0.2790
      3 C         143.0247  141.4630  163.0620 C.2     1  UNL1        0.2301
      4 O         141.8072  140.8293  162.4568 O.2     1  UNL1       -0.2745
      5 C         142.8663  143.4065  161.3449 C.3     1  UNL1        0.0782
      6 C         143.2830  143.0756  159.9425 C.3     1  UNL1        0.0372
      7 C         142.5951  143.7305  158.7814 C.3     1  UNL1        0.0741
      8 N         141.4904  144.7161  159.0229 N.3     1  UNL1       -0.2671
      9 C         141.0737  145.0469  160.4254 C.3     1  UNL1        0.0741
     10 C         141.7616  144.3921  161.5864 C.3     1  UNL1        0.0372
     11 C         140.8025  145.3709  157.8619 C.3     1  UNL1        0.1255
     12 C         139.7044  144.6504  157.1371 C.ar    1  UNL1        0.1037
     13 N         139.0092  143.4056  157.6031 N.ar    1  UNL1       -0.2460
     14 C         137.9839  143.0341  156.5732 C.ar    1  UNL1        0.0612
     15 C         138.0455  144.0493  155.4706 C.ar    1  UNL1        0.0219
     16 S         139.1088  145.0482  155.8192 S.2     1  UNL1       -0.0741
     17 C         137.1253  143.9330  154.2918 C.3     1  UNL1        0.0342
     18 C         136.1437  142.8015  154.2154 C.3     1  UNL1        0.0057
     19 C         136.0821  141.7863  155.3180 C.3     1  UNL1        0.0067
     20 C         137.0022  141.9026  156.4968 C.3     1  UNL1        0.0460
     21 C         143.7125  140.8082  164.2230 C.3     1  UNL1        0.1116
     22 C         143.1449  140.9439  165.6048 C.ar    1  UNL1       -0.0130
     23 C         143.3097  142.2292  166.3604 C.ar    1  UNL1       -0.0022
     24 C         142.7421  142.3649  167.7422 C.ar    1  UNL1        0.0190
     25 C         142.0097  141.2153  168.3684 C.ar    1  UNL1        0.0862
     26 C         141.8450  139.9301  167.6128 C.ar    1  UNL1        0.0190
     27 C         142.4126  139.7944  166.2310 C.ar    1  UNL1       -0.0022
     28 N         141.4421  141.3510  169.7502 N.ar    1  UNL1       -0.1886
     29 C         140.8893  140.2376  170.5896 C.ar    1  UNL1        0.2258
     30 N         140.4332  140.8224  171.8934 N.ar    1  UNL1       -0.1045
     31 N         140.7040  142.2973  171.8598 N.ar    1  UNL1       -0.0222
     32 N         141.3276  142.6240  170.5353 N.ar    1  UNL1       -0.0385
@<TRIPOS>BOND
     1     1     2    1
     2     2     3   am
     3     3     4    2
     4     3    21    1
     5    21    22    1
     6    22    23   ar
     7    23    24   ar
     8    24    25   ar
     9    25    28    1
    10    28    29   ar
    11    29    30   ar
    12    30    31   ar
    13    31    32   ar
    14    25    26   ar
    15    26    27   ar
    16     2     5    1
    17     5     6    1
    18     6     7    1
    19     7     8    1
    20     8    11    1
    21    11    12    1
    22    12    13   ar
    23    13    14   ar
    24    14    15   ar
    25    15    16   ar
    26    15    17    1
    27    17    18    1
    28    18    19    1
    29    19    20    1
    30     8     9    1
    31     9    10    1
    32    27    22   ar
    33    10     5    1
    34    32    28   ar
    35    16    12   ar
    36    20    14    1
