@<TRIPOS>MOLECULE
*****
 32 37 0 0 0
SMALL
GASTEIGER

@<TRIPOS>ATOM
      1 C         142.5420  136.7082  157.6769 C.3     1  UNL1        0.1161
      2 C         143.2720  135.4142  157.4703 C.3     1  UNL1        0.0510
      3 C         142.9002  134.5177  156.3266 C.2     1  UNL1       -0.0044
      4 C         141.7984  134.9152  155.3896 C.2     1  UNL1        0.0689
      5 N         141.6546  133.8352  154.3586 N.2     1  UNL1       -0.2526
      6 C         142.6676  132.7703  154.6584 C.2     1  UNL1        0.0627
      7 C         142.9884  131.4710  153.9811 C.3     1  UNL1        0.0717
      8 C         144.0791  130.5935  154.5200 C.2     1  UNL1       -0.0198
      9 C         144.8489  131.0154  155.7363 C.2     1  UNL1       -0.0042
     10 C         144.5281  132.3147  156.4137 C.2     1  UNL1        0.0006
     11 C         143.4374  133.1921  155.8747 C.2     1  UNL1        0.0111
     12 C         141.0684  136.2092  155.5963 C.3     1  UNL1        0.0947
     13 N         141.4402  137.1057  156.7399 N.3     1  UNL1       -0.2887
     14 H         140.6002  137.2240  157.3064 H       1  UNL1        0.1239
     15 C         143.2646  138.4570  161.0659 C.ar    1  UNL1        0.0784
     16 C         143.7074  139.5116  160.0953 C.ar    1  UNL1        0.1172
     17 N         143.4906  138.9848  158.7077 N.ar    1  UNL1       -0.2282
     18 C         142.9139  137.6048  158.8206 C.ar    1  UNL1        0.1318
     19 N         142.7742  137.2786  160.2780 N.ar    1  UNL1       -0.3396
     20 H         142.4224  136.4385  160.6519 H       1  UNL1        0.1671
     21 C         144.4968  139.3553  164.7298 C.ar    1  UNL1        0.0207
     22 C         143.3862  138.7733  165.5531 C.ar    1  UNL1        0.0989
     23 N         142.2350  138.0858  164.8806 N.ar    1  UNL1       -0.2423
     24 C         142.1945  137.9804  163.3849 C.ar    1  UNL1        0.1003
     25 C         143.3052  138.5625  162.5616 C.ar    1  UNL1        0.0363
     26 C         144.4563  139.2499  163.2341 C.ar    1  UNL1        0.0046
     27 C         139.9665  136.6066  154.6593 C.3     1  UNL1        0.0202
     28 C         140.1330  136.4139  153.1811 C.3     1  UNL1        0.0017
     29 C         139.0311  136.8114  152.2441 C.3     1  UNL1        0.0001
     30 C         137.7628  137.4016  152.7854 C.3     1  UNL1        0.0000
     31 C         137.5963  137.5943  154.2636 C.3     1  UNL1        0.0001
     32 C         138.6981  137.1968  155.2005 C.3     1  UNL1        0.0017
@<TRIPOS>BOND
     1    21    22   ar
     2    22    23   ar
     3    23    24   ar
     4    24    25   ar
     5    25    15    1
     6    15    16   ar
     7    16    17   ar
     8    17    18   ar
     9     1    18    1
    10     1     2    1
    11     2     3    1
    12     3     4    2
    13     4     5    1
    14     5     6    2
    15     6     7    1
    16     7     8    1
    17     8     9    2
    18     9    10    1
    19    10    11    2
    20     4    12    1
    21    12    27    1
    22    27    28    1
    23    28    29    1
    24    29    30    1
    25    30    31    1
    26    31    32    1
    27    12    13    1
    28    18    19   ar
    29    25    26   ar
    30    26    21   ar
    31    19    15   ar
    32    13     1    1
    33    11     3    1
    34    32    27    1
    35    11     6    1
    36    13    14    1
    37    19    20    1
@<TRIPOS>MOLECULE
*****
 32 37 0 0 0
SMALL
GASTEIGER

@<TRIPOS>ATOM
      1 C         143.1453  139.3225  157.9185 C.3     1  UNL1        0.1161
      2 C         142.3639  140.4944  157.4027 C.3     1  UNL1        0.0510
      3 C         142.1919  141.7155  158.2566 C.2     1  UNL1       -0.0044
      4 C         142.8012  141.7647  159.6264 C.2     1  UNL1        0.0689
      5 N         142.4660  143.0940  160.2353 N.2     1  UNL1       -0.2526
      6 C         141.6495  143.8663  159.2419 C.2     1  UNL1        0.0627
      7 C         141.0384  145.2351  159.2929 C.3     1  UNL1        0.0717
      8 C         140.2578  145.7521  158.1210 C.2     1  UNL1       -0.0198
      9 C         140.0884  144.9002  156.8981 C.2     1  UNL1       -0.0042
     10 C         140.6995  143.5313  156.8471 C.2     1  UNL1        0.0006
     11 C         141.4800  143.0143  158.0190 C.2     1  UNL1        0.0111
     12 C         143.5826  140.5928  160.1422 C.3     1  UNL1        0.0947
     13 N         143.7546  139.3717  159.2883 N.3     1  UNL1       -0.2887
     14 H         143.3645  138.5885  159.8124 H       1  UNL1        0.1239
     15 C         143.1069  135.8461  156.1925 C.ar    1  UNL1        0.0784
     16 C         144.0569  136.5982  155.3083 C.ar    1  UNL1        0.1172
     17 N         144.1869  137.9920  155.8472 N.ar    1  UNL1       -0.2282
     18 C         143.3173  138.1013  157.0645 C.ar    1  UNL1        0.1318
     19 N         142.6498  136.7751  157.2780 N.ar    1  UNL1       -0.3396
     20 H         142.0219  136.5533  158.0031 H       1  UNL1        0.1671
     21 C         141.4677  132.5778  154.6495 C.ar    1  UNL1        0.0207
     22 C         141.8491  131.5561  155.6793 C.ar    1  UNL1        0.0989
     23 N         142.6498  131.9643  156.8802 N.ar    1  UNL1       -0.2423
     24 C         143.0690  133.3943  157.0513 C.ar    1  UNL1        0.1003
     25 C         142.6876  134.4161  156.0214 C.ar    1  UNL1        0.0363
     26 C         141.8869  134.0078  154.8205 C.ar    1  UNL1        0.0046
     27 C         144.1920  140.6420  161.5120 C.3     1  UNL1        0.0202
     28 C         144.9942  141.8372  161.9334 C.3     1  UNL1        0.0017
     29 C         145.6036  141.8864  163.3033 C.3     1  UNL1        0.0001
     30 C         145.4107  140.7403  164.2515 C.3     1  UNL1        0.0000
     31 C         144.6085  139.5449  163.8300 C.3     1  UNL1        0.0001
     32 C         143.9991  139.4958  162.4603 C.3     1  UNL1        0.0017
@<TRIPOS>BOND
     1    21    22   ar
     2    22    23   ar
     3    23    24   ar
     4    24    25   ar
     5    25    15    1
     6    15    16   ar
     7    16    17   ar
     8    17    18   ar
     9     1    18    1
    10     1     2    1
    11     2     3    1
    12     3     4    2
    13     4     5    1
    14     5     6    2
    15     6     7    1
    16     7     8    1
    17     8     9    2
    18     9    10    1
    19    10    11    2
    20     4    12    1
    21    12    27    1
    22    27    28    1
    23    28    29    1
    24    29    30    1
    25    30    31    1
    26    31    32    1
    27    12    13    1
    28    18    19   ar
    29    25    26   ar
    30    26    21   ar
    31    19    15   ar
    32    13     1    1
    33    11     3    1
    34    32    27    1
    35    11     6    1
    36    13    14    1
    37    19    20    1
@<TRIPOS>MOLECULE
*****
 32 37 0 0 0
SMALL
GASTEIGER

@<TRIPOS>ATOM
      1 C         139.9340  143.8337  158.2390 C.3     1  UNL1        0.1161
      2 C         140.6223  142.5211  158.0080 C.3     1  UNL1        0.0510
      3 C         140.9316  141.6220  159.1681 C.2     1  UNL1       -0.0044
      4 C         140.5526  142.0355  160.5592 C.2     1  UNL1        0.0689
      5 N         140.9833  140.9488  161.4993 N.2     1  UNL1       -0.2526
      6 C         141.6284  139.8637  160.6891 C.2     1  UNL1        0.0627
      7 C         142.2408  138.5506  161.0771 C.3     1  UNL1        0.0717
      8 C         142.8213  137.6535  160.0244 C.2     1  UNL1       -0.0198
      9 C         142.7893  138.0696  158.5836 C.2     1  UNL1       -0.0042
     10 C         142.1770  139.3827  158.1956 C.2     1  UNL1        0.0006
     11 C         141.5965  140.2798  159.2483 C.2     1  UNL1        0.0111
     12 C         139.8643  143.3481  160.7903 C.3     1  UNL1        0.0947
     13 N         139.5551  144.2472  159.6302 N.3     1  UNL1       -0.2887
     14 H         140.0245  145.1343  159.8119 H       1  UNL1        0.1239
     15 C         139.3279  146.7145  155.7093 C.ar    1  UNL1        0.0784
     16 C         138.9698  145.5185  154.8779 C.ar    1  UNL1        0.1172
     17 N         139.1533  144.2938  155.7243 N.ar    1  UNL1       -0.2282
     18 C         139.6248  144.7329  157.0788 C.ar    1  UNL1        0.1318
     19 N         139.7327  146.2289  157.0696 N.ar    1  UNL1       -0.3396
     20 H         140.0190  146.7931  157.8239 H       1  UNL1        0.1671
     21 C         139.9193  149.9780  153.5300 C.ar    1  UNL1        0.0207
     22 C         139.2088  151.0057  154.3599 C.ar    1  UNL1        0.0989
     23 N         138.5379  150.6031  155.6397 N.ar    1  UNL1       -0.2423
     24 C         138.5777  149.1727  156.0895 C.ar    1  UNL1        0.1003
     25 C         139.2882  148.1449  155.2595 C.ar    1  UNL1        0.0363
     26 C         139.9590  148.5476  153.9797 C.ar    1  UNL1        0.0046
     27 C         139.4853  143.7616  162.1815 C.3     1  UNL1        0.0202
     28 C         140.5364  144.2600  163.1283 C.3     1  UNL1        0.0017
     29 C         140.1574  144.6735  164.5196 C.3     1  UNL1        0.0001
     30 C         138.7272  144.5885  164.9638 C.3     1  UNL1        0.0000
     31 C         137.6761  144.0900  164.0169 C.3     1  UNL1        0.0001
     32 C         138.0551  143.6766  162.6258 C.3     1  UNL1        0.0017
@<TRIPOS>BOND
     1    21    22   ar
     2    22    23   ar
     3    23    24   ar
     4    24    25   ar
     5    25    15    1
     6    15    16   ar
     7    16    17   ar
     8    17    18   ar
     9     1    18    1
    10     1     2    1
    11     2     3    1
    12     3     4    2
    13     4     5    1
    14     5     6    2
    15     6     7    1
    16     7     8    1
    17     8     9    2
    18     9    10    1
    19    10    11    2
    20     4    12    1
    21    12    27    1
    22    27    28    1
    23    28    29    1
    24    29    30    1
    25    30    31    1
    26    31    32    1
    27    12    13    1
    28    18    19   ar
    29    25    26   ar
    30    26    21   ar
    31    19    15   ar
    32    13     1    1
    33    11     3    1
    34    32    27    1
    35    11     6    1
    36    13    14    1
    37    19    20    1
@<TRIPOS>MOLECULE
*****
 32 37 0 0 0
SMALL
GASTEIGER

@<TRIPOS>ATOM
      1 C         140.0790  144.7491  158.4529 C.3     1  UNL1        0.1161
      2 C         139.2707  143.5815  157.9697 C.3     1  UNL1        0.0510
      3 C         138.5624  143.6546  156.6495 C.2     1  UNL1       -0.0044
      4 C         138.6624  144.8954  155.8125 C.2     1  UNL1        0.0689
      5 N         137.8605  144.6778  154.5636 N.2     1  UNL1       -0.2526
      6 C         137.2650  143.3026  154.6287 C.2     1  UNL1        0.0627
      7 C         136.3838  142.5446  153.6807 C.3     1  UNL1        0.0717
      8 C         135.9363  141.1541  154.0219 C.2     1  UNL1       -0.0198
      9 C         136.3701  140.5217  155.3111 C.2     1  UNL1       -0.0042
     10 C         137.2514  141.2798  156.2591 C.2     1  UNL1        0.0006
     11 C         137.6988  142.6703  155.9179 C.2     1  UNL1        0.0111
     12 C         139.4706  146.0630  156.2957 C.3     1  UNL1        0.0947
     13 N         140.1789  145.9898  157.6159 N.3     1  UNL1       -0.2887
     14 H         139.8223  146.7580  158.1844 H       1  UNL1        0.1239
     15 C         142.3154  144.0154  161.5392 C.ar    1  UNL1        0.0784
     16 C         141.4391  145.1109  162.0701 C.ar    1  UNL1        0.1172
     17 N         140.4947  145.5191  160.9786 N.ar    1  UNL1       -0.2282
     18 C         140.7873  144.6759  159.7732 C.ar    1  UNL1        0.1318
     19 N         141.9125  143.7465  160.1196 N.ar    1  UNL1       -0.3396
     20 H         142.3159  143.0775  159.5204 H       1  UNL1        0.1671
     21 C         144.5370  142.6888  164.5483 C.ar    1  UNL1        0.0207
     22 C         145.5798  141.9057  163.8071 C.ar    1  UNL1        0.0989
     23 N         145.5345  141.8259  162.3099 N.ar    1  UNL1       -0.2423
     24 C         144.4464  142.5291  161.5540 C.ar    1  UNL1        0.1003
     25 C         143.4036  143.3122  162.2952 C.ar    1  UNL1        0.0363
     26 C         143.4489  143.3920  163.7924 C.ar    1  UNL1        0.0046
     27 C         139.5706  147.3037  155.4587 C.3     1  UNL1        0.0202
     28 C         138.8761  148.5599  155.8939 C.3     1  UNL1        0.0017
     29 C         138.9761  149.8007  155.0569 C.3     1  UNL1        0.0001
     30 C         139.7706  149.7852  153.7847 C.3     1  UNL1        0.0000
     31 C         140.4651  148.5289  153.3495 C.3     1  UNL1        0.0001
     32 C         140.3651  147.2882  154.1865 C.3     1  UNL1        0.0017
@<TRIPOS>BOND
     1    21    22   ar
     2    22    23   ar
     3    23    24   ar
     4    24    25   ar
     5    25    15    1
     6    15    16   ar
     7    16    17   ar
     8    17    18   ar
     9     1    18    1
    10     1     2    1
    11     2     3    1
    12     3     4    2
    13     4     5    1
    14     5     6    2
    15     6     7    1
    16     7     8    1
    17     8     9    2
    18     9    10    1
    19    10    11    2
    20     4    12    1
    21    12    27    1
    22    27    28    1
    23    28    29    1
    24    29    30    1
    25    30    31    1
    26    31    32    1
    27    12    13    1
    28    18    19   ar
    29    25    26   ar
    30    26    21   ar
    31    19    15   ar
    32    13     1    1
    33    11     3    1
    34    32    27    1
    35    11     6    1
    36    13    14    1
    37    19    20    1
@<TRIPOS>MOLECULE
*****
 32 37 0 0 0
SMALL
GASTEIGER

@<TRIPOS>ATOM
      1 C         141.8959  139.6375  161.2027 C.3     1  UNL1        0.1161
      2 C         140.9288  138.8758  162.0597 C.3     1  UNL1        0.0510
      3 C         140.6004  139.3670  163.4384 C.2     1  UNL1       -0.0044
      4 C         141.2391  140.6199  163.9600 C.2     1  UNL1        0.0689
      5 N         140.7251  140.8585  165.3489 N.2     1  UNL1       -0.2526
      6 C         139.7687  139.7531  165.6855 C.2     1  UNL1        0.0627
      7 C         138.9581  139.4668  166.9147 C.3     1  UNL1        0.0717
      8 C         138.0704  138.2587  166.9631 C.2     1  UNL1       -0.0198
      9 C         137.9933  137.3368  165.7823 C.2     1  UNL1       -0.0042
     10 C         138.8039  137.6231  164.5531 C.2     1  UNL1        0.0006
     11 C         139.6916  138.8312  164.5047 C.2     1  UNL1        0.0111
     12 C         142.2062  141.3817  163.1030 C.3     1  UNL1        0.0947
     13 N         142.5346  140.8905  161.7243 N.3     1  UNL1       -0.2887
     14 H         143.5431  140.7399  161.6979 H       1  UNL1        0.1239
     15 C         142.4026  137.7336  157.8584 C.ar    1  UNL1        0.0784
     16 C         143.0566  139.0469  157.5462 C.ar    1  UNL1        0.1172
     17 N         142.9464  139.9200  158.7610 N.ar    1  UNL1       -0.2282
     18 C         142.2243  139.1463  159.8239 C.ar    1  UNL1        0.1318
     19 N         141.8882  137.7950  159.2661 N.ar    1  UNL1       -0.3396
     20 H         141.4134  137.0749  159.7407 H       1  UNL1        0.1671
     21 C         143.0727  134.2116  156.1565 C.ar    1  UNL1        0.0207
     22 C         142.0463  134.2254  155.0628 C.ar    1  UNL1        0.0989
     23 N         141.1386  135.4086  154.9009 N.ar    1  UNL1       -0.2423
     24 C         141.2574  136.5780  155.8328 C.ar    1  UNL1        0.1003
     25 C         142.2839  136.5642  156.9265 C.ar    1  UNL1        0.0363
     26 C         143.1915  135.3810  157.0884 C.ar    1  UNL1        0.0046
     27 C         142.8449  142.6346  163.6247 C.3     1  UNL1        0.0202
     28 C         142.4471  143.9682  163.0653 C.3     1  UNL1        0.0017
     29 C         143.0859  145.2212  163.5871 C.3     1  UNL1        0.0001
     30 C         144.1225  145.1404  164.6682 C.3     1  UNL1        0.0000
     31 C         144.5203  143.8067  165.2277 C.3     1  UNL1        0.0001
     32 C         143.8816  142.5539  164.7059 C.3     1  UNL1        0.0017
@<TRIPOS>BOND
     1    21    22   ar
     2    22    23   ar
     3    23    24   ar
     4    24    25   ar
     5    25    15    1
     6    15    16   ar
     7    16    17   ar
     8    17    18   ar
     9     1    18    1
    10     1     2    1
    11     2     3    1
    12     3     4    2
    13     4     5    1
    14     5     6    2
    15     6     7    1
    16     7     8    1
    17     8     9    2
    18     9    10    1
    19    10    11    2
    20     4    12    1
    21    12    27    1
    22    27    28    1
    23    28    29    1
    24    29    30    1
    25    30    31    1
    26    31    32    1
    27    12    13    1
    28    18    19   ar
    29    25    26   ar
    30    26    21   ar
    31    19    15   ar
    32    13     1    1
    33    11     3    1
    34    32    27    1
    35    11     6    1
    36    13    14    1
    37    19    20    1
@<TRIPOS>MOLECULE
*****
 32 37 0 0 0
SMALL
GASTEIGER

@<TRIPOS>ATOM
      1 C         140.6051  139.5714  160.6739 C.3     1  UNL1        0.1161
      2 C         141.5249  140.7437  160.8460 C.3     1  UNL1        0.0510
      3 C         141.6926  141.3734  162.1971 C.2     1  UNL1       -0.0044
      4 C         140.9405  140.8307  163.3760 C.2     1  UNL1        0.0689
      5 N         141.3053  141.6525  164.5766 N.2     1  UNL1       -0.2526
      6 C         142.2828  142.7030  164.1398 C.2     1  UNL1        0.0627
      7 C         142.9858  143.7944  164.8912 C.3     1  UNL1        0.0717
      8 C         143.9282  144.7133  164.1719 C.2     1  UNL1       -0.0198
      9 C         144.1676  144.5408  162.7012 C.2     1  UNL1       -0.0042
     10 C         143.4646  143.4494  161.9498 C.2     1  UNL1        0.0006
     11 C         142.5222  142.5305  162.6691 C.2     1  UNL1        0.0111
     12 C         140.0207  139.6584  163.2038 C.3     1  UNL1        0.0947
     13 N         139.8530  139.0287  161.8528 N.3     1  UNL1       -0.2887
     14 H         138.8613  139.0873  161.6217 H       1  UNL1        0.1239
     15 C         140.8537  137.6512  157.3099 C.ar    1  UNL1        0.0784
     16 C         139.5051  138.2944  157.1774 C.ar    1  UNL1        0.1172
     17 N         139.2478  139.0920  158.4215 N.ar    1  UNL1       -0.2282
     18 C         140.4374  138.9417  159.3227 C.ar    1  UNL1        0.1318
     19 N         141.4299  138.0513  158.6358 N.ar    1  UNL1       -0.3396
     20 H         142.3057  137.7775  158.9924 H       1  UNL1        0.1671
     21 C         141.3523  135.2611  154.1812 C.ar    1  UNL1        0.0207
     22 C         142.8250  134.9888  154.2643 C.ar    1  UNL1        0.0989
     23 N         143.6407  135.6039  155.3626 N.ar    1  UNL1       -0.2423
     24 C         142.9835  136.4914  156.3778 C.ar    1  UNL1        0.1003
     25 C         141.5108  136.7637  156.2946 C.ar    1  UNL1        0.0363
     26 C         140.6952  136.1485  155.1963 C.ar    1  UNL1        0.0046
     27 C         139.2686  139.1157  164.3827 C.3     1  UNL1        0.0202
     28 C         138.6138  140.0550  165.3516 C.3     1  UNL1        0.0017
     29 C         137.8617  139.5122  166.5305 C.3     1  UNL1        0.0001
     30 C         137.7645  138.0302  166.7405 C.3     1  UNL1        0.0000
     31 C         138.4194  137.0908  165.7716 C.3     1  UNL1        0.0001
     32 C         139.1714  137.6336  164.5928 C.3     1  UNL1        0.0017
@<TRIPOS>BOND
     1    21    22   ar
     2    22    23   ar
     3    23    24   ar
     4    24    25   ar
     5    25    15    1
     6    15    16   ar
     7    16    17   ar
     8    17    18   ar
     9     1    18    1
    10     1     2    1
    11     2     3    1
    12     3     4    2
    13     4     5    1
    14     5     6    2
    15     6     7    1
    16     7     8    1
    17     8     9    2
    18     9    10    1
    19    10    11    2
    20     4    12    1
    21    12    27    1
    22    27    28    1
    23    28    29    1
    24    29    30    1
    25    30    31    1
    26    31    32    1
    27    12    13    1
    28    18    19   ar
    29    25    26   ar
    30    26    21   ar
    31    19    15   ar
    32    13     1    1
    33    11     3    1
    34    32    27    1
    35    11     6    1
    36    13    14    1
    37    19    20    1
@<TRIPOS>MOLECULE
*****
 32 37 0 0 0
SMALL
GASTEIGER

@<TRIPOS>ATOM
      1 C         142.3015  138.7073  158.4631 C.3     1  UNL1        0.1161
      2 C         142.2172  140.1872  158.2334 C.3     1  UNL1        0.0510
      3 C         141.6583  141.0812  159.3004 C.2     1  UNL1       -0.0044
      4 C         141.1837  140.4952  160.5971 C.2     1  UNL1        0.0689
      5 N         140.6839  141.6176  161.4575 N.2     1  UNL1       -0.2526
      6 C         140.8495  142.8972  160.6927 C.2     1  UNL1        0.0627
      7 C         140.5298  144.3215  161.0379 C.3     1  UNL1        0.0717
      8 C         140.8123  145.4142  160.0500 C.2     1  UNL1       -0.0198
      9 C         141.4145  145.0827  158.7168 C.2     1  UNL1       -0.0042
     10 C         141.7343  143.6584  158.3715 C.2     1  UNL1        0.0006
     11 C         141.4518  142.5657  159.3595 C.2     1  UNL1        0.0111
     12 C         141.2681  139.0152  160.8268 C.3     1  UNL1        0.0947
     13 N         141.8270  138.1213  159.7598 N.3     1  UNL1       -0.2887
     14 H         141.0974  137.4470  159.5286 H       1  UNL1        0.1239
     15 C         143.3391  135.8585  156.0396 C.ar    1  UNL1        0.0784
     16 C         144.1019  137.0170  155.4686 C.ar    1  UNL1        0.1172
     17 N         143.8061  138.2252  156.3069 N.ar    1  UNL1       -0.2282
     18 C         142.8605  137.8134  157.3960 C.ar    1  UNL1        0.1318
     19 N         142.5718  136.3507  157.2308 N.ar    1  UNL1       -0.3396
     20 H         141.9823  135.8089  157.8037 H       1  UNL1        0.1671
     21 C         144.0957  131.9762  155.7160 C.ar    1  UNL1        0.0207
     22 C         143.3503  131.6461  154.4568 C.ar    1  UNL1        0.0989
     23 N         142.6013  132.7202  153.7252 N.ar    1  UNL1       -0.2423
     24 C         142.5975  134.1243  154.2528 C.ar    1  UNL1        0.1003
     25 C         143.3429  134.4543  155.5120 C.ar    1  UNL1        0.0363
     26 C         144.0919  133.3803  156.2436 C.ar    1  UNL1        0.0046
     27 C         140.7935  138.4292  162.1234 C.3     1  UNL1        0.0202
     28 C         139.3248  138.2640  162.3788 C.3     1  UNL1        0.0017
     29 C         138.8502  137.6780  163.6756 C.3     1  UNL1        0.0001
     30 C         139.8445  137.2572  164.7169 C.3     1  UNL1        0.0000
     31 C         141.3134  137.4224  164.4615 C.3     1  UNL1        0.0001
     32 C         141.7879  138.0084  163.1648 C.3     1  UNL1        0.0017
@<TRIPOS>BOND
     1    21    22   ar
     2    22    23   ar
     3    23    24   ar
     4    24    25   ar
     5    25    15    1
     6    15    16   ar
     7    16    17   ar
     8    17    18   ar
     9     1    18    1
    10     1     2    1
    11     2     3    1
    12     3     4    2
    13     4     5    1
    14     5     6    2
    15     6     7    1
    16     7     8    1
    17     8     9    2
    18     9    10    1
    19    10    11    2
    20     4    12    1
    21    12    27    1
    22    27    28    1
    23    28    29    1
    24    29    30    1
    25    30    31    1
    26    31    32    1
    27    12    13    1
    28    18    19   ar
    29    25    26   ar
    30    26    21   ar
    31    19    15   ar
    32    13     1    1
    33    11     3    1
    34    32    27    1
    35    11     6    1
    36    13    14    1
    37    19    20    1
@<TRIPOS>MOLECULE
*****
 32 37 0 0 0
SMALL
GASTEIGER

@<TRIPOS>ATOM
      1 C         139.4125  141.7493  161.0351 C.3     1  UNL1        0.1161
      2 C         140.5405  142.6513  161.4398 C.3     1  UNL1        0.0510
      3 C         141.1767  142.4974  162.7895 C.2     1  UNL1       -0.0044
      4 C         140.6847  141.4414  163.7344 C.2     1  UNL1        0.0689
      5 N         141.5015  141.5259  164.9897 N.2     1  UNL1       -0.2526
      6 C         142.4981  142.6341  164.8207 C.2     1  UNL1        0.0627
      7 C         143.5625  143.1740  165.7293 C.3     1  UNL1        0.0717
      8 C         144.4261  144.3144  165.2780 C.2     1  UNL1       -0.0198
      9 C         144.2254  144.9148  163.9181 C.2     1  UNL1       -0.0042
     10 C         143.1610  144.3749  163.0096 C.2     1  UNL1        0.0006
     11 C         142.2974  143.2345  163.4608 C.2     1  UNL1        0.0111
     12 C         139.5567  140.5394  163.3297 C.3     1  UNL1        0.0947
     13 N         138.9206  140.6933  161.9800 N.3     1  UNL1       -0.2887
     14 H         137.9307  140.8798  162.1406 H       1  UNL1        0.1239
     15 C         137.6688  141.4016  157.5849 C.ar    1  UNL1        0.0784
     16 C         137.9261  142.8786  157.6320 C.ar    1  UNL1        0.1172
     17 N         138.6106  143.1886  158.9302 N.ar    1  UNL1       -0.2282
     18 C         138.7763  141.9033  159.6854 C.ar    1  UNL1        0.1318
     19 N         138.1943  140.7988  158.8539 N.ar    1  UNL1       -0.3396
     20 H         138.1627  139.8456  159.0982 H       1  UNL1        0.1671
     21 C         134.8412  139.9053  155.2363 C.ar    1  UNL1        0.0207
     22 C         135.6713  139.1706  154.2259 C.ar    1  UNL1        0.0989
     23 N         137.1673  139.1795  154.3351 N.ar    1  UNL1       -0.2423
     24 C         137.8331  139.9232  155.4547 C.ar    1  UNL1        0.1003
     25 C         137.0029  140.6579  156.4652 C.ar    1  UNL1        0.0363
     26 C         135.5070  140.6490  156.3560 C.ar    1  UNL1        0.0046
     27 C         139.0648  139.4834  164.2746 C.3     1  UNL1        0.0202
     28 C         139.2999  138.0341  163.9679 C.3     1  UNL1        0.0017
     29 C         138.8080  136.9781  164.9129 C.3     1  UNL1        0.0001
     30 C         138.0808  137.3715  166.1645 C.3     1  UNL1        0.0000
     31 C         137.8457  138.8208  166.4712 C.3     1  UNL1        0.0001
     32 C         138.3376  139.8767  165.5263 C.3     1  UNL1        0.0017
@<TRIPOS>BOND
     1    21    22   ar
     2    22    23   ar
     3    23    24   ar
     4    24    25   ar
     5    25    15    1
     6    15    16   ar
     7    16    17   ar
     8    17    18   ar
     9     1    18    1
    10     1     2    1
    11     2     3    1
    12     3     4    2
    13     4     5    1
    14     5     6    2
    15     6     7    1
    16     7     8    1
    17     8     9    2
    18     9    10    1
    19    10    11    2
    20     4    12    1
    21    12    27    1
    22    27    28    1
    23    28    29    1
    24    29    30    1
    25    30    31    1
    26    31    32    1
    27    12    13    1
    28    18    19   ar
    29    25    26   ar
    30    26    21   ar
    31    19    15   ar
    32    13     1    1
    33    11     3    1
    34    32    27    1
    35    11     6    1
    36    13    14    1
    37    19    20    1
@<TRIPOS>MOLECULE
*****
 32 37 0 0 0
SMALL
GASTEIGER

@<TRIPOS>ATOM
      1 C         143.3878  140.1334  158.0708 C.3     1  UNL1        0.1161
      2 C         143.9331  140.1316  159.4682 C.3     1  UNL1        0.0510
      3 C         143.8127  141.3590  160.3218 C.2     1  UNL1       -0.0044
      4 C         143.1470  142.5883  159.7781 C.2     1  UNL1        0.0689
      5 N         143.1746  143.6412  160.8461 N.2     1  UNL1       -0.2526
      6 C         143.8573  143.0626  162.0499 C.2     1  UNL1        0.0627
      7 C         144.1708  143.6379  163.3992 C.3     1  UNL1        0.0717
      8 C         144.8788  142.8027  164.4245 C.2     1  UNL1       -0.0198
      9 C         145.2731  141.3922  164.1005 C.2     1  UNL1       -0.0042
     10 C         144.9596  140.8169  162.7512 C.2     1  UNL1        0.0006
     11 C         144.2517  141.6521  161.7259 C.2     1  UNL1        0.0111
     12 C         142.6017  142.5901  158.3807 C.3     1  UNL1        0.0947
     13 N         142.7221  141.3627  157.5270 N.3     1  UNL1       -0.2887
     14 H         143.2418  141.6343  156.6924 H       1  UNL1        0.1239
     15 C         143.3020  136.6262  156.4101 C.ar    1  UNL1        0.0784
     16 C         144.0852  137.4075  155.3970 C.ar    1  UNL1        0.1172
     17 N         144.2127  138.8164  155.8958 N.ar    1  UNL1       -0.2282
     18 C         143.5083  138.9058  157.2171 C.ar    1  UNL1        0.1318
     19 N         142.9454  137.5523  157.5349 N.ar    1  UNL1       -0.3396
     20 H         142.4321  137.3136  158.3404 H       1  UNL1        0.1671
     21 C         143.3924  132.6953  156.9479 C.ar    1  UNL1        0.0207
     22 C         142.2131  132.2693  156.1246 C.ar    1  UNL1        0.0989
     23 N         141.3968  133.2956  155.3965 N.ar    1  UNL1       -0.2423
     24 C         141.7597  134.7479  155.4916 C.ar    1  UNL1        0.1003
     25 C         142.9390  135.1738  156.3149 C.ar    1  UNL1        0.0363
     26 C         143.7554  134.1475  157.0431 C.ar    1  UNL1        0.0046
     27 C         141.9360  143.8194  157.8370 C.3     1  UNL1        0.0202
     28 C         140.8453  144.4897  158.6186 C.3     1  UNL1        0.0017
     29 C         140.1796  145.7190  158.0748 C.3     1  UNL1        0.0001
     30 C         140.6046  146.2780  156.7494 C.3     1  UNL1        0.0000
     31 C         141.6954  145.6078  155.9677 C.3     1  UNL1        0.0001
     32 C         142.3610  144.3785  156.5114 C.3     1  UNL1        0.0017
@<TRIPOS>BOND
     1    21    22   ar
     2    22    23   ar
     3    23    24   ar
     4    24    25   ar
     5    25    15    1
     6    15    16   ar
     7    16    17   ar
     8    17    18   ar
     9     1    18    1
    10     1     2    1
    11     2     3    1
    12     3     4    2
    13     4     5    1
    14     5     6    2
    15     6     7    1
    16     7     8    1
    17     8     9    2
    18     9    10    1
    19    10    11    2
    20     4    12    1
    21    12    27    1
    22    27    28    1
    23    28    29    1
    24    29    30    1
    25    30    31    1
    26    31    32    1
    27    12    13    1
    28    18    19   ar
    29    25    26   ar
    30    26    21   ar
    31    19    15   ar
    32    13     1    1
    33    11     3    1
    34    32    27    1
    35    11     6    1
    36    13    14    1
    37    19    20    1
