@<TRIPOS>MOLECULE
*****
 30 33 0 0 0
SMALL
GASTEIGER

@<TRIPOS>ATOM
      1 C         139.1286  142.5744  159.9820 C.2     1  UNL1        0.3047
      2 O         139.4574  144.0377  159.9593 O.2     1  UNL1       -0.2647
      3 N         138.3484  141.9634  158.8560 N.am    1  UNL1       -0.2647
      4 C         137.8467  140.5860  158.5380 C.3     1  UNL1        0.1392
      5 C         137.2450  141.0994  157.2634 C.3     1  UNL1        0.2069
      6 C         137.7467  142.4768  157.5814 C.3     1  UNL1        0.1392
      7 C         139.7685  140.7410  163.3428 C.ar    1  UNL1        0.2501
      8 N         140.7805  140.0798  162.4546 N.ar    1  UNL1       -0.1068
      9 N         140.6639  140.6861  161.0876 N.ar    1  UNL1       -0.1021
     10 C         139.5799  141.7220  161.1308 C.ar    1  UNL1        0.3043
     11 O         139.0266  141.7559  162.5246 O.2     1  UNL1       -0.4122
     12 C         139.0796  139.8383  167.6972 C.ar    1  UNL1        0.1387
     13 C         140.1304  140.8298  167.2939 C.ar    1  UNL1        0.0371
     14 C         140.3600  141.1307  165.8424 C.ar    1  UNL1        0.0078
     15 C         139.5389  140.4401  164.7942 C.ar    1  UNL1        0.0553
     16 C         138.4881  139.4485  165.1975 C.ar    1  UNL1        0.0078
     17 C         138.2585  139.1476  166.6490 C.ar    1  UNL1        0.0371
     18 C         139.3986  140.4549  170.2007 C.3     1  UNL1        0.2525
     19 O         138.8500  139.5373  169.1486 O.3     1  UNL1       -0.4714
     20 O         136.4648  140.4885  156.1374 O.3     1  UNL1       -0.4604
     21 C         134.9672  140.4360  156.2045 C.ar    1  UNL1        0.2248
     22 C         134.1450  141.3092  155.3037 C.ar    1  UNL1        0.0574
     23 C         132.6475  141.2567  155.3707 C.ar    1  UNL1        0.0034
     24 C         131.9720  140.3310  156.3387 C.ar    1  UNL1        0.0133
     25 C         132.7942  139.4578  157.2394 C.ar    1  UNL1        0.0991
     26 N         134.2918  139.5102  157.1724 N.ar    1  UNL1       -0.2104
     27 C         130.4745  140.2785  156.4057 C.3     1  UNL1        0.1008
     28 N         129.7955  139.1651  157.1470 N.3     1  UNL1       -0.2665
     29 C         129.3407  139.3736  158.5612 C.3     1  UNL1        0.0899
     30 C         129.5713  137.8434  156.4742 C.3     1  UNL1        0.0899
@<TRIPOS>BOND
     1    18    19    1
     2    19    12    1
     3    12    13   ar
     4    13    14   ar
     5    14    15   ar
     6    15     7    1
     7     7     8   ar
     8     8     9   ar
     9     9    10   ar
    10    10     1    1
    11     1     2    2
    12     1     3   am
    13     3     4    1
    14     4     5    1
    15     5    20    1
    16    20    21    1
    17    21    22   ar
    18    22    23   ar
    19    23    24   ar
    20    24    27    1
    21    27    28    1
    22    28    29    1
    23    28    30    1
    24    24    25   ar
    25    25    26   ar
    26     5     6    1
    27    10    11   ar
    28    15    16   ar
    29    16    17   ar
    30    17    12   ar
    31    11     7   ar
    32     6     3    1
    33    26    21   ar
@<TRIPOS>MOLECULE
*****
 30 33 0 0 0
SMALL
GASTEIGER

@<TRIPOS>ATOM
      1 C         142.5490  139.7583  158.9509 C.2     1  UNL1        0.3047
      2 O         141.5315  140.7987  158.5870 O.2     1  UNL1       -0.2647
      3 N         143.2318  139.8114  160.2854 N.am    1  UNL1       -0.2647
      4 C         144.2666  138.9778  160.9812 C.3     1  UNL1        0.1392
      5 C         144.1974  139.8866  162.1727 C.3     1  UNL1        0.2069
      6 C         143.1626  140.7202  161.4767 C.3     1  UNL1        0.1392
      7 C         142.9596  136.5086  156.8684 C.ar    1  UNL1        0.2501
      8 N         143.8372  137.4553  156.1045 N.ar    1  UNL1       -0.1068
      9 N         143.7902  138.7878  156.7916 N.ar    1  UNL1       -0.1021
     10 C         142.8836  138.6648  157.9802 C.ar    1  UNL1        0.3043
     11 O         142.3702  137.2561  158.0277 O.2     1  UNL1       -0.4122
     12 C         142.2241  132.1852  155.8597 C.ar    1  UNL1        0.1387
     13 C         143.2616  132.5515  156.8792 C.ar    1  UNL1        0.0371
     14 C         143.5068  133.9926  157.2154 C.ar    1  UNL1        0.0078
     15 C         142.7144  135.0675  156.5322 C.ar    1  UNL1        0.0553
     16 C         141.6769  134.7012  155.5128 C.ar    1  UNL1        0.0078
     17 C         141.4317  133.2601  155.1765 C.ar    1  UNL1        0.0371
     18 C         142.6542  129.6638  156.3153 C.3     1  UNL1        0.2525
     19 O         141.9789  130.7441  155.5235 O.3     1  UNL1       -0.4714
     20 O         144.8802  139.9398  163.5071 O.3     1  UNL1       -0.4604
     21 C         144.0650  139.9945  164.7651 C.ar    1  UNL1        0.2248
     22 C         143.8342  138.7464  165.5643 C.ar    1  UNL1        0.0574
     23 C         143.0190  138.8012  166.8222 C.ar    1  UNL1        0.0034
     24 C         142.4345  140.1042  167.2810 C.ar    1  UNL1        0.0133
     25 C         142.6652  141.3524  166.4818 C.ar    1  UNL1        0.0991
     26 N         143.4805  141.2976  165.2238 N.ar    1  UNL1       -0.2104
     27 C         141.6193  140.1590  168.5389 C.3     1  UNL1        0.1008
     28 N         140.1218  140.1131  168.4647 N.3     1  UNL1       -0.2665
     29 C         139.2993  140.5140  169.6534 C.3     1  UNL1        0.0899
     30 C         139.4467  139.6664  167.2018 C.3     1  UNL1        0.0899
@<TRIPOS>BOND
     1    18    19    1
     2    19    12    1
     3    12    13   ar
     4    13    14   ar
     5    14    15   ar
     6    15     7    1
     7     7     8   ar
     8     8     9   ar
     9     9    10   ar
    10    10     1    1
    11     1     2    2
    12     1     3   am
    13     3     4    1
    14     4     5    1
    15     5    20    1
    16    20    21    1
    17    21    22   ar
    18    22    23   ar
    19    23    24   ar
    20    24    27    1
    21    27    28    1
    22    28    29    1
    23    28    30    1
    24    24    25   ar
    25    25    26   ar
    26     5     6    1
    27    10    11   ar
    28    15    16   ar
    29    16    17   ar
    30    17    12   ar
    31    11     7   ar
    32     6     3    1
    33    26    21   ar
@<TRIPOS>MOLECULE
*****
 30 33 0 0 0
SMALL
GASTEIGER

@<TRIPOS>ATOM
      1 C         140.5169  139.0826  160.6986 C.2     1  UNL1        0.3047
      2 O         139.4175  140.0559  160.3918 O.2     1  UNL1       -0.2647
      3 N         141.3825  138.5558  159.5926 N.am    1  UNL1       -0.2647
      4 C         142.5388  137.6038  159.5126 C.3     1  UNL1        0.1392
      5 C         142.6066  137.8109  158.0284 C.3     1  UNL1        0.2069
      6 C         141.4503  138.7630  158.1085 C.3     1  UNL1        0.1392
      7 C         141.0572  138.6598  164.5189 C.ar    1  UNL1        0.2501
      8 N         141.1633  137.2383  164.0521 N.ar    1  UNL1       -0.1068
      9 N         140.9738  137.2236  162.5642 N.ar    1  UNL1       -0.1021
     10 C         140.7506  138.6361  162.1114 C.ar    1  UNL1        0.3043
     11 O         140.8021  139.5237  163.3195 O.2     1  UNL1       -0.4122
     12 C         141.4373  140.0830  168.7710 C.ar    1  UNL1        0.1387
     13 C         142.6416  139.5630  168.0436 C.ar    1  UNL1        0.0371
     14 C         142.5149  139.0887  166.6263 C.ar    1  UNL1        0.0078
     15 C         141.1839  139.1342  165.9363 C.ar    1  UNL1        0.0553
     16 C         139.9795  139.6541  166.6636 C.ar    1  UNL1        0.0078
     17 C         140.1062  140.1285  168.0810 C.ar    1  UNL1        0.0371
     18 C         140.8628  141.8091  170.6258 C.3     1  UNL1        0.2525
     19 O         141.5639  140.5573  170.1884 O.3     1  UNL1       -0.4714
     20 O         143.4722  137.2842  156.9225 O.3     1  UNL1       -0.4604
     21 C         143.2038  135.9275  156.3414 C.ar    1  UNL1        0.2248
     22 C         142.9309  135.7808  154.8738 C.ar    1  UNL1        0.0574
     23 C         142.6625  134.4242  154.2928 C.ar    1  UNL1        0.0034
     24 C         142.6672  133.2143  155.1794 C.ar    1  UNL1        0.0133
     25 C         142.9401  133.3610  156.6470 C.ar    1  UNL1        0.0991
     26 N         143.2085  134.7176  157.2281 N.ar    1  UNL1       -0.2104
     27 C         142.3988  131.8577  154.5984 C.3     1  UNL1        0.1008
     28 N         143.5312  131.0363  154.0570 N.3     1  UNL1       -0.2665
     29 C         144.5248  130.4179  154.9953 C.3     1  UNL1        0.0899
     30 C         143.6700  130.8333  152.5772 C.3     1  UNL1        0.0899
@<TRIPOS>BOND
     1    18    19    1
     2    19    12    1
     3    12    13   ar
     4    13    14   ar
     5    14    15   ar
     6    15     7    1
     7     7     8   ar
     8     8     9   ar
     9     9    10   ar
    10    10     1    1
    11     1     2    2
    12     1     3   am
    13     3     4    1
    14     4     5    1
    15     5    20    1
    16    20    21    1
    17    21    22   ar
    18    22    23   ar
    19    23    24   ar
    20    24    27    1
    21    27    28    1
    22    28    29    1
    23    28    30    1
    24    24    25   ar
    25    25    26   ar
    26     5     6    1
    27    10    11   ar
    28    15    16   ar
    29    16    17   ar
    30    17    12   ar
    31    11     7   ar
    32     6     3    1
    33    26    21   ar
@<TRIPOS>MOLECULE
*****
 30 33 0 0 0
SMALL
GASTEIGER

@<TRIPOS>ATOM
      1 C         138.4188  139.2215  161.0578 C.2     1  UNL1        0.3047
      2 O         137.0371  139.5718  160.5907 O.2     1  UNL1       -0.2647
      3 N         139.5348  139.0875  160.0646 N.am    1  UNL1       -0.2647
      4 C         140.9965  138.7614  160.1492 C.3     1  UNL1        0.1392
      5 C         141.1131  138.8979  158.6600 C.3     1  UNL1        0.2069
      6 C         139.6514  139.2240  158.5754 C.3     1  UNL1        0.1392
      7 C         139.1754  139.4120  164.8601 C.ar    1  UNL1        0.2501
      8 N         139.0110  137.9331  164.6710 N.ar    1  UNL1       -0.1068
      9 N         138.7075  137.6817  163.2236 N.ar    1  UNL1       -0.1021
     10 C         138.6844  139.0052  162.5182 C.ar    1  UNL1        0.3043
     11 O         138.9735  140.0746  163.5296 O.2     1  UNL1       -0.4122
     12 C         140.1099  141.4951  168.7378 C.ar    1  UNL1        0.1387
     13 C         139.3803  140.1845  168.7473 C.ar    1  UNL1        0.0371
     14 C         139.0688  139.4902  167.4547 C.ar    1  UNL1        0.0078
     15 C         139.4869  140.1063  166.1526 C.ar    1  UNL1        0.0553
     16 C         140.2165  141.4169  166.1432 C.ar    1  UNL1        0.0078
     17 C         140.5280  142.1112  167.4357 C.ar    1  UNL1        0.0371
     18 C         141.7280  141.9357  170.7222 C.3     1  UNL1        0.2525
     19 O         140.4215  142.1894  170.0304 O.3     1  UNL1       -0.4714
     20 O         142.2291  138.7639  157.6668 O.3     1  UNL1       -0.4604
     21 C         142.3456  137.5228  156.8324 C.ar    1  UNL1        0.2248
     22 C         141.1089  136.8071  156.3759 C.ar    1  UNL1        0.0574
     23 C         141.2254  135.5660  155.5416 C.ar    1  UNL1        0.0034
     24 C         142.5786  135.0406  155.1637 C.ar    1  UNL1        0.0133
     25 C         143.8152  135.7563  155.6202 C.ar    1  UNL1        0.0991
     26 N         143.6988  136.9974  156.4546 N.ar    1  UNL1       -0.2104
     27 C         142.6951  133.7995  154.3294 C.3     1  UNL1        0.1008
     28 N         142.9605  132.4770  154.9854 N.3     1  UNL1       -0.2665
     29 C         143.4808  131.3280  154.1735 C.3     1  UNL1        0.0899
     30 C         142.7055  132.3033  156.4534 C.3     1  UNL1        0.0899
@<TRIPOS>BOND
     1    18    19    1
     2    19    12    1
     3    12    13   ar
     4    13    14   ar
     5    14    15   ar
     6    15     7    1
     7     7     8   ar
     8     8     9   ar
     9     9    10   ar
    10    10     1    1
    11     1     2    2
    12     1     3   am
    13     3     4    1
    14     4     5    1
    15     5    20    1
    16    20    21    1
    17    21    22   ar
    18    22    23   ar
    19    23    24   ar
    20    24    27    1
    21    27    28    1
    22    28    29    1
    23    28    30    1
    24    24    25   ar
    25    25    26   ar
    26     5     6    1
    27    10    11   ar
    28    15    16   ar
    29    16    17   ar
    30    17    12   ar
    31    11     7   ar
    32     6     3    1
    33    26    21   ar
@<TRIPOS>MOLECULE
*****
 30 33 0 0 0
SMALL
GASTEIGER

@<TRIPOS>ATOM
      1 C         139.3081  143.7148  161.2950 C.2     1  UNL1        0.3047
      2 O         139.5963  145.0089  160.5934 O.2     1  UNL1       -0.2647
      3 N         139.0815  142.4642  160.4984 N.am    1  UNL1       -0.2647
      4 C         138.7784  141.0338  160.8333 C.3     1  UNL1        0.1392
      5 C         138.7609  140.6955  159.3720 C.3     1  UNL1        0.2069
      6 C         139.0639  142.1259  159.0372 C.3     1  UNL1        0.1392
      7 C         139.5220  142.9521  165.0947 C.ar    1  UNL1        0.2501
      8 N         138.7822  144.2570  165.1022 N.ar    1  UNL1       -0.1068
      9 N         138.6121  144.7016  163.6797 N.ar    1  UNL1       -0.1021
     10 C         139.2467  143.6714  162.7931 C.ar    1  UNL1        0.3043
     11 O         139.8090  142.5902  163.6676 O.2     1  UNL1       -0.4122
     12 C         140.6772  140.5457  168.7175 C.ar    1  UNL1        0.1387
     13 C         140.0032  139.8767  167.5564 C.ar    1  UNL1        0.0371
     14 C         139.6181  140.6788  166.3488 C.ar    1  UNL1        0.0078
     15 C         139.9070  142.1500  166.3023 C.ar    1  UNL1        0.0553
     16 C         140.5810  142.8190  167.4634 C.ar    1  UNL1        0.0078
     17 C         140.9660  142.0168  168.6710 C.ar    1  UNL1        0.0371
     18 C         142.3728  139.0146  169.9545 C.3     1  UNL1        0.2525
     19 O         141.0622  139.7435  169.9251 O.3     1  UNL1       -0.4714
     20 O         138.5342  139.4448  158.5755 O.3     1  UNL1       -0.4604
     21 C         139.7050  138.6629  158.0577 C.ar    1  UNL1        0.2248
     22 C         141.0501  138.8092  158.7051 C.ar    1  UNL1        0.0574
     23 C         142.2207  138.0272  158.1873 C.ar    1  UNL1        0.0034
     24 C         142.0463  137.0990  157.0220 C.ar    1  UNL1        0.0133
     25 C         140.7012  136.9528  156.3745 C.ar    1  UNL1        0.0991
     26 N         139.5304  137.7347  156.8923 N.ar    1  UNL1       -0.2104
     27 C         143.2169  136.3171  156.5041 C.3     1  UNL1        0.1008
     28 N         143.1690  134.8180  156.4872 N.3     1  UNL1       -0.2665
     29 C         143.5174  134.0424  157.7231 C.3     1  UNL1        0.0899
     30 C         142.7728  134.0943  155.2344 C.3     1  UNL1        0.0899
@<TRIPOS>BOND
     1    18    19    1
     2    19    12    1
     3    12    13   ar
     4    13    14   ar
     5    14    15   ar
     6    15     7    1
     7     7     8   ar
     8     8     9   ar
     9     9    10   ar
    10    10     1    1
    11     1     2    2
    12     1     3   am
    13     3     4    1
    14     4     5    1
    15     5    20    1
    16    20    21    1
    17    21    22   ar
    18    22    23   ar
    19    23    24   ar
    20    24    27    1
    21    27    28    1
    22    28    29    1
    23    28    30    1
    24    24    25   ar
    25    25    26   ar
    26     5     6    1
    27    10    11   ar
    28    15    16   ar
    29    16    17   ar
    30    17    12   ar
    31    11     7   ar
    32     6     3    1
    33    26    21   ar
@<TRIPOS>MOLECULE
*****
 30 33 0 0 0
SMALL
GASTEIGER

@<TRIPOS>ATOM
      1 C         141.4557  137.9589  157.7947 C.2     1  UNL1        0.3047
      2 O         140.1878  138.7166  157.5336 O.2     1  UNL1       -0.2647
      3 N         141.8612  136.8386  156.8833 N.am    1  UNL1       -0.2647
      4 C         143.0177  135.8852  156.8242 C.3     1  UNL1        0.1392
      5 C         142.4346  135.2543  155.5944 C.3     1  UNL1        0.2069
      6 C         141.2782  136.2078  155.6536 C.3     1  UNL1        0.1392
      7 C         143.1182  138.6218  161.2389 C.ar    1  UNL1        0.2501
      8 N         144.1724  139.1368  160.3043 N.ar    1  UNL1       -0.1068
      9 N         143.6779  138.9512  158.9003 N.ar    1  UNL1       -0.1021
     10 C         142.3182  138.3214  158.9672 C.ar    1  UNL1        0.3043
     11 O         141.9723  138.1179  160.4125 O.2     1  UNL1       -0.4122
     12 C         143.3525  138.5935  165.7327 C.ar    1  UNL1        0.1387
     13 C         144.4517  139.2216  164.9283 C.ar    1  UNL1        0.0371
     14 C         144.3736  139.2311  163.4304 C.ar    1  UNL1        0.0078
     15 C         143.1963  138.6124  162.7368 C.ar    1  UNL1        0.0553
     16 C         142.0970  137.9843  163.5412 C.ar    1  UNL1        0.0078
     17 C         142.1751  137.9749  165.0392 C.ar    1  UNL1        0.0371
     18 C         142.6009  139.5438  168.0310 C.3     1  UNL1        0.2525
     19 O         143.4306  138.5841  167.2306 O.3     1  UNL1       -0.4714
     20 O         142.8401  134.1342  154.6831 O.3     1  UNL1       -0.4604
     21 C         142.9155  132.7307  155.2074 C.ar    1  UNL1        0.2248
     22 C         144.1133  132.2872  155.9938 C.ar    1  UNL1        0.0574
     23 C         144.1887  130.8838  156.5181 C.ar    1  UNL1        0.0034
     24 C         143.0663  129.9239  156.2558 C.ar    1  UNL1        0.0133
     25 C         141.8685  130.3674  155.4693 C.ar    1  UNL1        0.0991
     26 N         141.7931  131.7709  154.9450 N.ar    1  UNL1       -0.2104
     27 C         143.1416  128.5205  156.7800 C.3     1  UNL1        0.1008
     28 N         143.9667  128.2173  157.9954 N.3     1  UNL1       -0.2665
     29 C         143.4585  128.5854  159.3579 C.3     1  UNL1        0.0899
     30 C         145.3000  127.5459  157.8484 C.3     1  UNL1        0.0899
@<TRIPOS>BOND
     1    18    19    1
     2    19    12    1
     3    12    13   ar
     4    13    14   ar
     5    14    15   ar
     6    15     7    1
     7     7     8   ar
     8     8     9   ar
     9     9    10   ar
    10    10     1    1
    11     1     2    2
    12     1     3   am
    13     3     4    1
    14     4     5    1
    15     5    20    1
    16    20    21    1
    17    21    22   ar
    18    22    23   ar
    19    23    24   ar
    20    24    27    1
    21    27    28    1
    22    28    29    1
    23    28    30    1
    24    24    25   ar
    25    25    26   ar
    26     5     6    1
    27    10    11   ar
    28    15    16   ar
    29    16    17   ar
    30    17    12   ar
    31    11     7   ar
    32     6     3    1
    33    26    21   ar
@<TRIPOS>MOLECULE
*****
 30 33 0 0 0
SMALL
GASTEIGER

@<TRIPOS>ATOM
      1 C         142.6561  138.6987  159.0117 C.2     1  UNL1        0.3047
      2 O         143.9378  139.4720  159.1078 O.2     1  UNL1       -0.2647
      3 N         141.5008  139.0481  159.9023 N.am    1  UNL1       -0.2647
      4 C         140.1091  138.5211  160.0900 C.3     1  UNL1        0.1392
      5 C         139.8669  139.5424  161.1617 C.3     1  UNL1        0.2069
      6 C         141.2587  140.0693  160.9740 C.3     1  UNL1        0.1392
      7 C         142.8654  135.4653  156.8747 C.ar    1  UNL1        0.2501
      8 N         141.8057  136.2309  156.1391 N.ar    1  UNL1       -0.1068
      9 N         141.5984  137.5353  156.8501 N.ar    1  UNL1       -0.1021
     10 C         142.5298  137.5759  158.0251 C.ar    1  UNL1        0.3043
     11 O         143.3129  136.2966  158.0403 O.2     1  UNL1       -0.4122
     12 C         144.4274  131.3903  155.7773 C.ar    1  UNL1        0.1387
     13 C         143.4868  132.1066  154.8542 C.ar    1  UNL1        0.0371
     14 C         142.9661  133.4649  155.2200 C.ar    1  UNL1        0.0078
     15 C         143.3860  134.1070  156.5089 C.ar    1  UNL1        0.0553
     16 C         144.3266  133.3907  157.4320 C.ar    1  UNL1        0.0078
     17 C         144.8473  132.0324  157.0663 C.ar    1  UNL1        0.0371
     18 C         144.7441  129.4991  154.0243 C.3     1  UNL1        0.2525
     19 O         144.9481  130.0320  155.4115 O.3     1  UNL1       -0.4714
     20 O         138.7116  139.8918  162.0522 O.3     1  UNL1       -0.4604
     21 C         138.8866  139.8930  163.5420 C.ar    1  UNL1        0.2248
     22 C         138.6274  138.6425  164.3287 C.ar    1  UNL1        0.0574
     23 C         138.8024  138.6439  165.8185 C.ar    1  UNL1        0.0034
     24 C         139.2366  139.8957  166.5215 C.ar    1  UNL1        0.0133
     25 C         139.4957  141.1462  165.7348 C.ar    1  UNL1        0.0991
     26 N         139.3207  141.1450  164.2450 N.ar    1  UNL1       -0.2104
     27 C         139.4115  139.8971  168.0113 C.3     1  UNL1        0.1008
     28 N         140.7076  140.3522  168.6138 N.3     1  UNL1       -0.2665
     29 C         140.7057  141.3665  169.7190 C.3     1  UNL1        0.0899
     30 C         142.0056  139.7932  168.1111 C.3     1  UNL1        0.0899
@<TRIPOS>BOND
     1    18    19    1
     2    19    12    1
     3    12    13   ar
     4    13    14   ar
     5    14    15   ar
     6    15     7    1
     7     7     8   ar
     8     8     9   ar
     9     9    10   ar
    10    10     1    1
    11     1     2    2
    12     1     3   am
    13     3     4    1
    14     4     5    1
    15     5    20    1
    16    20    21    1
    17    21    22   ar
    18    22    23   ar
    19    23    24   ar
    20    24    27    1
    21    27    28    1
    22    28    29    1
    23    28    30    1
    24    24    25   ar
    25    25    26   ar
    26     5     6    1
    27    10    11   ar
    28    15    16   ar
    29    16    17   ar
    30    17    12   ar
    31    11     7   ar
    32     6     3    1
    33    26    21   ar
@<TRIPOS>MOLECULE
*****
 30 33 0 0 0
SMALL
GASTEIGER

@<TRIPOS>ATOM
      1 C         139.7184  139.2984  159.0940 C.2     1  UNL1        0.3047
      2 O         138.4437  139.5509  158.3447 O.2     1  UNL1       -0.2647
      3 N         140.7926  138.4491  158.4819 N.am    1  UNL1       -0.2647
      4 C         142.1543  137.9892  158.9108 C.3     1  UNL1        0.1392
      5 C         142.3118  137.2480  157.6162 C.3     1  UNL1        0.2069
      6 C         140.9500  137.7080  157.1873 C.3     1  UNL1        0.1392
      7 C         139.8437  140.2459  162.8559 C.ar    1  UNL1        0.2501
      8 N         140.6104  141.3814  162.2453 N.ar    1  UNL1       -0.1068
      9 N         140.6567  141.1647  160.7618 N.ar    1  UNL1       -0.1021
     10 C         139.9187  139.8953  160.4555 C.ar    1  UNL1        0.3043
     11 O         139.4163  139.3274  161.7497 O.2     1  UNL1       -0.4122
     12 C         138.9781  139.6921  167.2370 C.ar    1  UNL1        0.1387
     13 C         139.7806  140.8718  166.7744 C.ar    1  UNL1        0.0371
     14 C         140.0692  141.0564  165.3140 C.ar    1  UNL1        0.0078
     15 C         139.5552  140.0613  164.3163 C.ar    1  UNL1        0.0553
     16 C         138.7527  138.8815  164.7790 C.ar    1  UNL1        0.0078
     17 C         138.4642  138.6969  166.2393 C.ar    1  UNL1        0.0371
     18 C         139.4769  140.2720  169.7199 C.3     1  UNL1        0.2525
     19 O         138.6896  139.5075  168.6974 O.3     1  UNL1       -0.4714
     20 O         143.3860  136.3987  157.0041 O.3     1  UNL1       -0.4604
     21 C         143.1225  134.9511  156.7124 C.ar    1  UNL1        0.2248
     22 C         143.8171  133.8869  157.5091 C.ar    1  UNL1        0.0574
     23 C         143.5536  132.4393  157.2174 C.ar    1  UNL1        0.0034
     24 C         142.5954  132.0560  156.1288 C.ar    1  UNL1        0.0133
     25 C         141.9008  133.1201  155.3320 C.ar    1  UNL1        0.0991
     26 N         142.1643  134.5678  155.6238 N.ar    1  UNL1       -0.2104
     27 C         142.3319  130.6084  155.8371 C.3     1  UNL1        0.1008
     28 N         142.4060  130.1020  154.4271 N.3     1  UNL1       -0.2665
     29 C         143.7312  130.0165  153.7295 C.3     1  UNL1        0.0899
     30 C         141.1549  129.6809  153.7147 C.3     1  UNL1        0.0899
@<TRIPOS>BOND
     1    18    19    1
     2    19    12    1
     3    12    13   ar
     4    13    14   ar
     5    14    15   ar
     6    15     7    1
     7     7     8   ar
     8     8     9   ar
     9     9    10   ar
    10    10     1    1
    11     1     2    2
    12     1     3   am
    13     3     4    1
    14     4     5    1
    15     5    20    1
    16    20    21    1
    17    21    22   ar
    18    22    23   ar
    19    23    24   ar
    20    24    27    1
    21    27    28    1
    22    28    29    1
    23    28    30    1
    24    24    25   ar
    25    25    26   ar
    26     5     6    1
    27    10    11   ar
    28    15    16   ar
    29    16    17   ar
    30    17    12   ar
    31    11     7   ar
    32     6     3    1
    33    26    21   ar
@<TRIPOS>MOLECULE
*****
 30 33 0 0 0
SMALL
GASTEIGER

@<TRIPOS>ATOM
      1 C         142.8165  138.0693  157.0999 C.2     1  UNL1        0.3047
      2 O         142.6177  139.2288  156.1693 O.2     1  UNL1       -0.2647
      3 N         143.1030  136.7046  156.5473 N.am    1  UNL1       -0.2647
      4 C         143.3509  135.3501  157.1421 C.3     1  UNL1        0.1392
      5 C         143.5082  134.7746  155.7657 C.3     1  UNL1        0.2069
      6 C         143.2603  136.1291  155.1710 C.3     1  UNL1        0.1392
      7 C         141.9185  138.2639  160.8711 C.ar    1  UNL1        0.2501
      8 N         143.2687  138.9172  160.8605 N.ar    1  UNL1       -0.1068
      9 N         143.7695  138.9239  159.4466 N.ar    1  UNL1       -0.1021
     10 C         142.7287  138.2746  158.5832 C.ar    1  UNL1        0.3043
     11 O         141.5848  137.8668  159.4636 O.2     1  UNL1       -0.4122
     12 C         139.3246  137.6101  164.4896 C.ar    1  UNL1        0.1387
     13 C         140.8184  137.5779  164.6219 C.ar    1  UNL1        0.0371
     14 C         141.6830  137.7958  163.4157 C.ar    1  UNL1        0.0078
     15 C         141.0539  138.0460  162.0772 C.ar    1  UNL1        0.0553
     16 C         139.5601  138.0782  161.9450 C.ar    1  UNL1        0.0078
     17 C         138.6955  137.8603  163.1512 C.ar    1  UNL1        0.0371
     18 C         138.0026  138.5643  166.5124 C.3     1  UNL1        0.2525
     19 O         138.4600  137.3922  165.6958 O.3     1  UNL1       -0.4714
     20 O         143.7947  133.4099  155.2132 O.3     1  UNL1       -0.4604
     21 C         143.8768  132.2294  156.1351 C.ar    1  UNL1        0.2248
     22 C         144.9530  132.1656  157.1779 C.ar    1  UNL1        0.0574
     23 C         145.0350  130.9852  158.0998 C.ar    1  UNL1        0.0034
     24 C         144.0407  129.8686  157.9789 C.ar    1  UNL1        0.0133
     25 C         142.9644  129.9325  156.9361 C.ar    1  UNL1        0.0991
     26 N         142.8824  131.1129  156.0142 N.ar    1  UNL1       -0.2104
     27 C         144.1227  128.6882  158.9008 C.3     1  UNL1        0.1008
     28 N         143.6865  127.3339  158.4258 N.3     1  UNL1       -0.2665
     29 C         142.3828  126.7587  158.8944 C.3     1  UNL1        0.0899
     30 C         144.5541  126.5547  157.4822 C.3     1  UNL1        0.0899
@<TRIPOS>BOND
     1    18    19    1
     2    19    12    1
     3    12    13   ar
     4    13    14   ar
     5    14    15   ar
     6    15     7    1
     7     7     8   ar
     8     8     9   ar
     9     9    10   ar
    10    10     1    1
    11     1     2    2
    12     1     3   am
    13     3     4    1
    14     4     5    1
    15     5    20    1
    16    20    21    1
    17    21    22   ar
    18    22    23   ar
    19    23    24   ar
    20    24    27    1
    21    27    28    1
    22    28    29    1
    23    28    30    1
    24    24    25   ar
    25    25    26   ar
    26     5     6    1
    27    10    11   ar
    28    15    16   ar
    29    16    17   ar
    30    17    12   ar
    31    11     7   ar
    32     6     3    1
    33    26    21   ar
