@<TRIPOS>MOLECULE
*****
 32 36 0 0 0
SMALL
GASTEIGER

@<TRIPOS>ATOM
      1 C         143.5600  143.1985  161.6608 C.3     1  UNL1        0.0719
      2 C         142.6609  143.9061  160.6908 C.ar    1  UNL1        0.1229
      3 N         142.9239  143.8100  159.2172 N.ar    1  UNL1       -0.2306
      4 C         142.0248  144.5176  158.2471 C.ar    1  UNL1        0.1065
      5 C         142.2877  144.4214  156.7735 C.ar    1  UNL1        0.1213
      6 N         141.3887  145.1290  155.8035 N.ar    1  UNL1       -0.2082
      7 C         140.2266  145.9328  156.3071 C.ar    1  UNL1        0.2299
      8 C         139.9636  146.0289  157.7807 C.ar    1  UNL1        0.0644
      9 C         140.8627  145.3213  158.7507 C.ar    1  UNL1        0.0800
     10 C         140.5997  145.4174  160.2244 C.ar    1  UNL1        0.2633
     11 O         139.4377  146.2211  160.7280 O.2     1  UNL1       -0.2669
     12 N         141.4988  144.7098  161.1944 N.ar    1  UNL1       -0.2840
     13 O         139.3275  146.6404  155.3370 O.3     1  UNL1       -0.4361
     14 C         139.3495  148.1376  155.2490 C.ar    1  UNL1        0.1478
     15 C         138.5218  148.9567  156.1945 C.ar    1  UNL1        0.0391
     16 C         138.5439  150.4540  156.1064 C.ar    1  UNL1        0.0228
     17 C         139.3936  151.1321  155.0729 C.ar    1  UNL1        0.0881
     18 N         139.6165  152.5797  154.7492 N.ar    1  UNL1       -0.2363
     19 C         140.5820  152.6552  153.6037 C.ar    1  UNL1        0.1345
     20 S         140.9557  151.2543  153.2195 S.2     1  UNL1       -0.0644
     21 C         140.2213  150.3129  154.1275 C.ar    1  UNL1        0.0516
     22 C         140.1993  148.8157  154.2155 C.ar    1  UNL1        0.0456
     23 C         141.2359  144.8060  162.6681 C.3     1  UNL1        0.1115
     24 C         140.0810  144.0647  163.2737 C.3     1  UNL1        0.0388
     25 C         139.0803  144.7963  164.1184 C.3     1  UNL1        0.0048
     26 C         137.9254  144.0551  164.7240 C.3     1  UNL1        0.0174
     27 C         137.7712  142.5823  164.4851 C.3     1  UNL1        0.0720
     28 N         138.7719  141.8507  163.6405 N.3     1  UNL1       -0.2739
     29 C         139.9268  142.5920  163.0348 C.3     1  UNL1        0.0739
     30 C         138.6178  140.3780  163.4015 C.3     1  UNL1        0.0576
     31 C         139.1891  139.3955  164.3805 C.3     1  UNL1        0.0173
     32 C         137.8922  139.8876  162.1837 C.3     1  UNL1        0.0173
@<TRIPOS>BOND
     1     1     2    1
     2     2     3   ar
     3     3     4   ar
     4     4     5   ar
     5     5     6   ar
     6     6     7   ar
     7     7    13    1
     8    13    14    1
     9    14    15   ar
    10    15    16   ar
    11    16    17   ar
    12    17    18   ar
    13    18    19   ar
    14    19    20   ar
    15    20    21   ar
    16    21    22   ar
    17     7     8   ar
    18     8     9   ar
    19     9    10   ar
    20    10    11    2
    21    10    12   ar
    22    12    23    1
    23    24    23    1
    24    24    25    1
    25    25    26    1
    26    26    27    1
    27    27    28    1
    28    28    30    1
    29    30    31    1
    30    30    32    1
    31    28    29    1
    32    12     2   ar
    33    29    24    1
    34     9     4   ar
    35    22    14   ar
    36    21    17   ar
@<TRIPOS>MOLECULE
*****
 32 36 0 0 0
SMALL
GASTEIGER

@<TRIPOS>ATOM
      1 C         139.7202  138.5060  158.9276 C.3     1  UNL1        0.0719
      2 C         139.3427  138.7904  160.3513 C.ar    1  UNL1        0.1229
      3 N         139.8677  137.9204  161.4546 N.ar    1  UNL1       -0.2306
      4 C         139.4902  138.2048  162.8782 C.ar    1  UNL1        0.1065
      5 C         140.0153  137.3348  163.9815 C.ar    1  UNL1        0.1213
      6 N         139.6378  137.6193  165.4051 N.ar    1  UNL1       -0.2082
      7 C         138.7352  138.7738  165.7253 C.ar    1  UNL1        0.2299
      8 C         138.2102  139.6438  164.6220 C.ar    1  UNL1        0.0644
      9 C         138.5877  139.3593  163.1985 C.ar    1  UNL1        0.0800
     10 C         138.0626  140.2294  162.0950 C.ar    1  UNL1        0.2633
     11 O         137.1601  141.3838  162.4153 O.2     1  UNL1       -0.2669
     12 N         138.4401  139.9449  160.6715 N.ar    1  UNL1       -0.2840
     13 O         138.3577  139.0582  167.1489 O.3     1  UNL1       -0.4361
     14 C         139.2773  139.8582  168.0232 C.ar    1  UNL1        0.1478
     15 C         138.8801  140.1798  169.4334 C.ar    1  UNL1        0.0391
     16 C         139.7997  140.9799  170.3077 C.ar    1  UNL1        0.0228
     17 C         141.1165  141.4582  169.7717 C.ar    1  UNL1        0.0881
     18 N         142.2217  142.2596  170.3932 N.ar    1  UNL1       -0.2363
     19 C         143.3020  142.4332  169.3671 C.ar    1  UNL1        0.1345
     20 S         142.8644  141.7391  168.1115 S.2     1  UNL1       -0.0644
     21 C         141.5136  141.1366  168.3615 C.ar    1  UNL1        0.0516
     22 C         140.5941  140.3366  167.4872 C.ar    1  UNL1        0.0456
     23 C         137.9151  140.8149  159.5681 C.3     1  UNL1        0.1115
     24 C         138.6181  142.0942  159.2227 C.3     1  UNL1        0.0388
     25 C         138.7632  142.5064  157.7877 C.3     1  UNL1        0.0048
     26 C         139.4663  143.7856  157.4422 C.3     1  UNL1        0.0174
     27 C         140.0242  144.6526  158.5318 C.3     1  UNL1        0.0720
     28 N         139.8792  144.2404  159.9667 N.3     1  UNL1       -0.2739
     29 C         139.1761  142.9611  160.3121 C.3     1  UNL1        0.0739
     30 C         140.4371  145.1073  161.0561 C.3     1  UNL1        0.0576
     31 C         141.7621  144.7741  161.6753 C.3     1  UNL1        0.0173
     32 C         139.6701  146.3076  161.5264 C.3     1  UNL1        0.0173
@<TRIPOS>BOND
     1     1     2    1
     2     2     3   ar
     3     3     4   ar
     4     4     5   ar
     5     5     6   ar
     6     6     7   ar
     7     7    13    1
     8    13    14    1
     9    14    15   ar
    10    15    16   ar
    11    16    17   ar
    12    17    18   ar
    13    18    19   ar
    14    19    20   ar
    15    20    21   ar
    16    21    22   ar
    17     7     8   ar
    18     8     9   ar
    19     9    10   ar
    20    10    11    2
    21    10    12   ar
    22    12    23    1
    23    24    23    1
    24    24    25    1
    25    25    26    1
    26    26    27    1
    27    27    28    1
    28    28    30    1
    29    30    31    1
    30    30    32    1
    31    28    29    1
    32    12     2   ar
    33    29    24    1
    34     9     4   ar
    35    22    14   ar
    36    21    17   ar
@<TRIPOS>MOLECULE
*****
 32 36 0 0 0
SMALL
GASTEIGER

@<TRIPOS>ATOM
      1 C         144.8790  140.4950  164.3401 C.3     1  UNL1        0.0719
      2 C         144.1553  139.8405  163.2008 C.ar    1  UNL1        0.1229
      3 N         144.4743  140.2288  161.7875 N.ar    1  UNL1       -0.2306
      4 C         143.7506  139.5743  160.6483 C.ar    1  UNL1        0.1065
      5 C         144.0696  139.9626  159.2350 C.ar    1  UNL1        0.1213
      6 N         143.3458  139.3081  158.0958 N.ar    1  UNL1       -0.2082
      7 C         142.3031  138.2652  158.3699 C.ar    1  UNL1        0.2299
      8 C         141.9841  137.8769  159.7832 C.ar    1  UNL1        0.0644
      9 C         142.7078  138.5315  160.9224 C.ar    1  UNL1        0.0800
     10 C         142.3888  138.1431  162.3358 C.ar    1  UNL1        0.2633
     11 O         141.3460  137.1003  162.6099 O.2     1  UNL1       -0.2669
     12 N         143.1125  138.7977  163.4749 N.ar    1  UNL1       -0.2840
     13 O         141.5793  137.6107  157.2307 O.3     1  UNL1       -0.4361
     14 C         142.0719  136.3052  156.6803 C.ar    1  UNL1        0.1478
     15 C         141.6132  135.8396  155.3301 C.ar    1  UNL1        0.0391
     16 C         142.1059  134.5341  154.7797 C.ar    1  UNL1        0.0228
     17 C         143.0572  133.6942  155.5794 C.ar    1  UNL1        0.0881
     18 N         143.7083  132.3723  155.2991 N.ar    1  UNL1       -0.2363
     19 C         144.5694  132.0209  156.4760 C.ar    1  UNL1        0.1345
     20 S         144.4505  133.1256  157.4836 S.2     1  UNL1       -0.0644
     21 C         143.5159  134.1598  156.9295 C.ar    1  UNL1        0.0516
     22 C         143.0233  135.4653  157.4800 C.ar    1  UNL1        0.0456
     23 C         142.7935  138.4094  164.8883 C.3     1  UNL1        0.1115
     24 C         141.7618  139.1756  165.6619 C.3     1  UNL1        0.0388
     25 C         140.3039  138.8878  165.4568 C.3     1  UNL1        0.0048
     26 C         139.2722  139.6540  166.2304 C.3     1  UNL1        0.0174
     27 C         139.6983  140.7080  167.2091 C.3     1  UNL1        0.0720
     28 N         141.1561  140.9956  167.4142 N.3     1  UNL1       -0.2739
     29 C         142.1878  140.2294  166.6405 C.3     1  UNL1        0.0739
     30 C         141.5821  142.0495  168.3928 C.3     1  UNL1        0.0576
     31 C         143.0088  142.1142  168.8516 C.3     1  UNL1        0.0173
     32 C         140.5815  143.0387  168.9127 C.3     1  UNL1        0.0173
@<TRIPOS>BOND
     1     1     2    1
     2     2     3   ar
     3     3     4   ar
     4     4     5   ar
     5     5     6   ar
     6     6     7   ar
     7     7    13    1
     8    13    14    1
     9    14    15   ar
    10    15    16   ar
    11    16    17   ar
    12    17    18   ar
    13    18    19   ar
    14    19    20   ar
    15    20    21   ar
    16    21    22   ar
    17     7     8   ar
    18     8     9   ar
    19     9    10   ar
    20    10    11    2
    21    10    12   ar
    22    12    23    1
    23    24    23    1
    24    24    25    1
    25    25    26    1
    26    26    27    1
    27    27    28    1
    28    28    30    1
    29    30    31    1
    30    30    32    1
    31    28    29    1
    32    12     2   ar
    33    29    24    1
    34     9     4   ar
    35    22    14   ar
    36    21    17   ar
@<TRIPOS>MOLECULE
*****
 32 36 0 0 0
SMALL
GASTEIGER

@<TRIPOS>ATOM
      1 C         138.3349  144.5505  163.1102 C.3     1  UNL1        0.0719
      2 C         138.3706  143.3841  162.1676 C.ar    1  UNL1        0.1229
      3 N         138.7708  143.5883  160.7365 N.ar    1  UNL1       -0.2306
      4 C         138.8065  142.4218  159.7940 C.ar    1  UNL1        0.1065
      5 C         139.2066  142.6260  158.3629 C.ar    1  UNL1        0.1213
      6 N         139.2423  141.4596  157.4204 N.ar    1  UNL1       -0.2082
      7 C         138.8779  140.0891  157.9091 C.ar    1  UNL1        0.2299
      8 C         138.4777  139.8849  159.3403 C.ar    1  UNL1        0.0644
      9 C         138.4420  141.0513  160.2827 C.ar    1  UNL1        0.0800
     10 C         138.0419  140.8472  161.7139 C.ar    1  UNL1        0.2633
     11 O         137.6775  139.4767  162.2026 O.2     1  UNL1       -0.2669
     12 N         138.0062  142.0136  162.6563 N.ar    1  UNL1       -0.2840
     13 O         138.9136  138.9227  156.9666 O.3     1  UNL1       -0.4361
     14 C         140.1324  138.0511  156.8977 C.ar    1  UNL1        0.1478
     15 C         141.3203  138.3532  157.7624 C.ar    1  UNL1        0.0391
     16 C         142.5392  137.4816  157.6934 C.ar    1  UNL1        0.0228
     17 C         142.5702  136.3080  156.7598 C.ar    1  UNL1        0.0881
     18 N         143.6236  135.2784  156.4765 N.ar    1  UNL1       -0.2363
     19 C         143.0867  134.3399  155.4368 C.ar    1  UNL1        0.1345
     20 S         141.7016  134.7896  155.0775 S.2     1  UNL1       -0.0644
     21 C         141.3823  136.0060  155.8951 C.ar    1  UNL1        0.0516
     22 C         140.1635  136.8775  155.9641 C.ar    1  UNL1        0.0456
     23 C         137.6061  141.8095  164.0876 C.3     1  UNL1        0.1115
     24 C         138.5650  141.1758  165.0513 C.3     1  UNL1        0.0388
     25 C         138.2407  139.8474  165.6679 C.3     1  UNL1        0.0048
     26 C         139.1997  139.2137  166.6317 C.3     1  UNL1        0.0174
     27 C         140.4830  139.9085  166.9789 C.3     1  UNL1        0.0720
     28 N         140.8073  141.2369  166.3623 N.3     1  UNL1       -0.2739
     29 C         139.8483  141.8705  165.3985 C.3     1  UNL1        0.0739
     30 C         142.0905  141.9316  166.7095 C.3     1  UNL1        0.0576
     31 C         143.0227  142.3733  165.6205 C.3     1  UNL1        0.0173
     32 C         142.4416  142.1847  168.1458 C.3     1  UNL1        0.0173
@<TRIPOS>BOND
     1     1     2    1
     2     2     3   ar
     3     3     4   ar
     4     4     5   ar
     5     5     6   ar
     6     6     7   ar
     7     7    13    1
     8    13    14    1
     9    14    15   ar
    10    15    16   ar
    11    16    17   ar
    12    17    18   ar
    13    18    19   ar
    14    19    20   ar
    15    20    21   ar
    16    21    22   ar
    17     7     8   ar
    18     8     9   ar
    19     9    10   ar
    20    10    11    2
    21    10    12   ar
    22    12    23    1
    23    24    23    1
    24    24    25    1
    25    25    26    1
    26    26    27    1
    27    27    28    1
    28    28    30    1
    29    30    31    1
    30    30    32    1
    31    28    29    1
    32    12     2   ar
    33    29    24    1
    34     9     4   ar
    35    22    14   ar
    36    21    17   ar
@<TRIPOS>MOLECULE
*****
 32 36 0 0 0
SMALL
GASTEIGER

@<TRIPOS>ATOM
      1 C         138.4442  141.2028  163.4380 C.3     1  UNL1        0.0719
      2 C         139.3332  140.3931  162.5412 C.ar    1  UNL1        0.1229
      3 N         139.6488  140.8815  161.1586 N.ar    1  UNL1       -0.2306
      4 C         140.5378  140.0718  160.2618 C.ar    1  UNL1        0.1065
      5 C         140.8535  140.5602  158.8792 C.ar    1  UNL1        0.1213
      6 N         141.7424  139.7505  157.9825 N.ar    1  UNL1       -0.2082
      7 C         142.3157  138.4524  158.4684 C.ar    1  UNL1        0.2299
      8 C         142.0000  137.9639  159.8511 C.ar    1  UNL1        0.0644
      9 C         141.1111  138.7737  160.7478 C.ar    1  UNL1        0.0800
     10 C         140.7954  138.2852  162.1305 C.ar    1  UNL1        0.2633
     11 O         141.3687  136.9871  162.6165 O.2     1  UNL1       -0.2669
     12 N         139.9065  139.0950  163.0272 N.ar    1  UNL1       -0.2840
     13 O         143.2047  137.6426  157.5717 O.3     1  UNL1       -0.4361
     14 C         142.6579  136.4404  156.8606 C.ar    1  UNL1        0.1478
     15 C         141.5507  136.5993  155.8612 C.ar    1  UNL1        0.0391
     16 C         141.0039  135.3970  155.1501 C.ar    1  UNL1        0.0228
     17 C         141.5643  134.0358  155.4386 C.ar    1  UNL1        0.0881
     18 N         141.2296  132.6774  154.8977 N.ar    1  UNL1       -0.2363
     19 C         142.1299  131.6789  155.5628 C.ar    1  UNL1        0.1345
     20 S         143.0210  132.4203  156.5148 S.2     1  UNL1       -0.0644
     21 C         142.6715  133.8769  156.4380 C.ar    1  UNL1        0.0516
     22 C         143.2182  135.0792  157.1491 C.ar    1  UNL1        0.0456
     23 C         139.5908  138.6065  164.4099 C.3     1  UNL1        0.1115
     24 C         140.4359  139.0418  165.5702 C.3     1  UNL1        0.0388
     25 C         141.8842  138.6558  165.6297 C.3     1  UNL1        0.0048
     26 C         142.7293  139.0911  166.7900 C.3     1  UNL1        0.0174
     27 C         142.1261  139.9124  167.8909 C.3     1  UNL1        0.0720
     28 N         140.6779  140.2984  167.8313 N.3     1  UNL1       -0.2739
     29 C         139.8328  139.8631  166.6710 C.3     1  UNL1        0.0739
     30 C         140.0747  141.1196  168.9321 C.3     1  UNL1        0.0576
     31 C         139.0587  140.5103  169.8520 C.3     1  UNL1        0.0173
     32 C         140.4877  142.5503  169.1130 C.3     1  UNL1        0.0173
@<TRIPOS>BOND
     1     1     2    1
     2     2     3   ar
     3     3     4   ar
     4     4     5   ar
     5     5     6   ar
     6     6     7   ar
     7     7    13    1
     8    13    14    1
     9    14    15   ar
    10    15    16   ar
    11    16    17   ar
    12    17    18   ar
    13    18    19   ar
    14    19    20   ar
    15    20    21   ar
    16    21    22   ar
    17     7     8   ar
    18     8     9   ar
    19     9    10   ar
    20    10    11    2
    21    10    12   ar
    22    12    23    1
    23    24    23    1
    24    24    25    1
    25    25    26    1
    26    26    27    1
    27    27    28    1
    28    28    30    1
    29    30    31    1
    30    30    32    1
    31    28    29    1
    32    12     2   ar
    33    29    24    1
    34     9     4   ar
    35    22    14   ar
    36    21    17   ar
@<TRIPOS>MOLECULE
*****
 32 36 0 0 0
SMALL
GASTEIGER

@<TRIPOS>ATOM
      1 C         144.5226  140.9337  163.5388 C.3     1  UNL1        0.0719
      2 C         143.9124  140.1769  162.3965 C.ar    1  UNL1        0.1229
      3 N         144.3206  140.4885  160.9871 N.ar    1  UNL1       -0.2306
      4 C         143.7103  139.7318  159.8448 C.ar    1  UNL1        0.1065
      5 C         144.1185  140.0434  158.4355 C.ar    1  UNL1        0.1213
      6 N         143.5082  139.2866  157.2932 N.ar    1  UNL1       -0.2082
      7 C         142.4898  138.2182  157.5602 C.ar    1  UNL1        0.2299
      8 C         142.0817  137.9065  158.9695 C.ar    1  UNL1        0.0644
      9 C         142.6919  138.6633  160.1118 C.ar    1  UNL1        0.0800
     10 C         142.2838  138.3517  161.5212 C.ar    1  UNL1        0.2633
     11 O         141.2654  137.2832  161.7883 O.2     1  UNL1       -0.2669
     12 N         142.8940  139.1084  162.6635 N.ar    1  UNL1       -0.2840
     13 O         141.8796  137.4614  156.4178 O.3     1  UNL1       -0.4361
     14 C         142.0926  135.9813  156.2997 C.ar    1  UNL1        0.1478
     15 C         141.2105  135.1660  155.4013 C.ar    1  UNL1        0.0391
     16 C         141.4235  133.6858  155.2833 C.ar    1  UNL1        0.0228
     17 C         142.5186  133.0211  156.0636 C.ar    1  UNL1        0.0881
     18 N         142.9643  131.5915  156.1496 N.ar    1  UNL1       -0.2363
     19 C         144.1218  131.5232  157.1012 C.ar    1  UNL1        0.1345
     20 S         144.3915  132.9107  157.6033 S.2     1  UNL1       -0.0644
     21 C         143.4007  133.8365  156.9620 C.ar    1  UNL1        0.0516
     22 C         143.1877  135.3165  157.0801 C.ar    1  UNL1        0.0456
     23 C         142.4859  138.7968  164.0729 C.3     1  UNL1        0.1115
     24 C         141.1231  139.1877  164.5629 C.3     1  UNL1        0.0388
     25 C         140.1787  138.1382  165.0696 C.3     1  UNL1        0.0048
     26 C         138.8159  138.5292  165.5596 C.3     1  UNL1        0.0174
     27 C         138.3976  139.9696  165.5430 C.3     1  UNL1        0.0720
     28 N         139.3421  141.0190  165.0363 N.3     1  UNL1       -0.2739
     29 C         140.7048  140.6281  164.5463 C.3     1  UNL1        0.0739
     30 C         138.9237  142.4594  165.0197 C.3     1  UNL1        0.0576
     31 C         139.6768  143.4686  165.8348 C.3     1  UNL1        0.0173
     32 C         137.7523  142.8906  164.1879 C.3     1  UNL1        0.0173
@<TRIPOS>BOND
     1     1     2    1
     2     2     3   ar
     3     3     4   ar
     4     4     5   ar
     5     5     6   ar
     6     6     7   ar
     7     7    13    1
     8    13    14    1
     9    14    15   ar
    10    15    16   ar
    11    16    17   ar
    12    17    18   ar
    13    18    19   ar
    14    19    20   ar
    15    20    21   ar
    16    21    22   ar
    17     7     8   ar
    18     8     9   ar
    19     9    10   ar
    20    10    11    2
    21    10    12   ar
    22    12    23    1
    23    24    23    1
    24    24    25    1
    25    25    26    1
    26    26    27    1
    27    27    28    1
    28    28    30    1
    29    30    31    1
    30    30    32    1
    31    28    29    1
    32    12     2   ar
    33    29    24    1
    34     9     4   ar
    35    22    14   ar
    36    21    17   ar
@<TRIPOS>MOLECULE
*****
 32 36 0 0 0
SMALL
GASTEIGER

@<TRIPOS>ATOM
      1 C         141.1110  137.1311  164.3179 C.3     1  UNL1        0.0719
      2 C         140.2870  137.8986  163.3269 C.ar    1  UNL1        0.1229
      3 N         140.5373  137.7353  161.8570 N.ar    1  UNL1       -0.2306
      4 C         139.7133  138.5028  160.8660 C.ar    1  UNL1        0.1065
      5 C         139.9636  138.3395  159.3961 C.ar    1  UNL1        0.1213
      6 N         139.1396  139.1070  158.4053 N.ar    1  UNL1       -0.2082
      7 C         138.0653  140.0379  158.8843 C.ar    1  UNL1        0.2299
      8 C         137.8150  140.2012  160.3542 C.ar    1  UNL1        0.0644
      9 C         138.6390  139.4337  161.3450 C.ar    1  UNL1        0.0800
     10 C         138.3887  139.5970  162.8150 C.ar    1  UNL1        0.2633
     11 O         137.3145  140.5278  163.2940 O.2     1  UNL1       -0.2669
     12 N         139.2127  138.8295  163.8059 N.ar    1  UNL1       -0.2840
     13 O         137.2413  140.8054  157.8933 O.3     1  UNL1       -0.4361
     14 C         137.7791  142.0687  157.2892 C.ar    1  UNL1        0.1478
     15 C         137.0794  142.6988  156.1216 C.ar    1  UNL1        0.0391
     16 C         137.6173  143.9621  155.5176 C.ar    1  UNL1        0.0228
     17 C         138.8549  144.5952  156.0811 C.ar    1  UNL1        0.0881
     18 N         139.6135  145.8312  155.6981 N.ar    1  UNL1       -0.2363
     19 C         140.7821  145.9650  156.6290 C.ar    1  UNL1        0.1345
     20 S         140.7456  144.8117  157.5873 S.2     1  UNL1       -0.0644
     21 C         139.5546  143.9651  157.2487 C.ar    1  UNL1        0.0516
     22 C         139.0167  142.7019  157.8528 C.ar    1  UNL1        0.0456
     23 C         138.9625  138.9928  165.2759 C.3     1  UNL1        0.1115
     24 C         139.5733  140.1449  166.0172 C.3     1  UNL1        0.0388
     25 C         140.2506  141.2490  165.2607 C.3     1  UNL1        0.0048
     26 C         140.8614  142.4011  166.0020 C.3     1  UNL1        0.0174
     27 C         140.7949  142.4491  167.4998 C.3     1  UNL1        0.0720
     28 N         140.1176  141.3450  168.2562 N.3     1  UNL1       -0.2739
     29 C         139.5068  140.1929  167.5149 C.3     1  UNL1        0.0739
     30 C         140.0511  141.3930  169.7540 C.3     1  UNL1        0.0576
     31 C         139.8421  142.7032  170.4538 C.3     1  UNL1        0.0173
     32 C         140.1936  140.1309  170.5519 C.3     1  UNL1        0.0173
@<TRIPOS>BOND
     1     1     2    1
     2     2     3   ar
     3     3     4   ar
     4     4     5   ar
     5     5     6   ar
     6     6     7   ar
     7     7    13    1
     8    13    14    1
     9    14    15   ar
    10    15    16   ar
    11    16    17   ar
    12    17    18   ar
    13    18    19   ar
    14    19    20   ar
    15    20    21   ar
    16    21    22   ar
    17     7     8   ar
    18     8     9   ar
    19     9    10   ar
    20    10    11    2
    21    10    12   ar
    22    12    23    1
    23    24    23    1
    24    24    25    1
    25    25    26    1
    26    26    27    1
    27    27    28    1
    28    28    30    1
    29    30    31    1
    30    30    32    1
    31    28    29    1
    32    12     2   ar
    33    29    24    1
    34     9     4   ar
    35    22    14   ar
    36    21    17   ar
@<TRIPOS>MOLECULE
*****
 32 36 0 0 0
SMALL
GASTEIGER

@<TRIPOS>ATOM
      1 C         139.0628  138.1985  164.8941 C.3     1  UNL1        0.0719
      2 C         139.8900  138.2181  163.6429 C.ar    1  UNL1        0.1229
      3 N         139.2210  138.2985  162.3028 N.ar    1  UNL1       -0.2306
      4 C         140.0481  138.3181  161.0515 C.ar    1  UNL1        0.1065
      5 C         139.3791  138.3985  159.7114 C.ar    1  UNL1        0.1213
      6 N         140.2062  138.4181  158.4603 N.ar    1  UNL1       -0.2082
      7 C         141.7023  138.3573  158.5492 C.ar    1  UNL1        0.2299
      8 C         142.3713  138.2769  159.8893 C.ar    1  UNL1        0.0644
      9 C         141.5442  138.2573  161.1405 C.ar    1  UNL1        0.0800
     10 C         142.2132  138.1769  162.4807 C.ar    1  UNL1        0.2633
     11 O         143.7093  138.1161  162.5696 O.2     1  UNL1       -0.2669
     12 N         141.3861  138.1573  163.7318 N.ar    1  UNL1       -0.2840
     13 O         142.5294  138.3769  157.2980 O.3     1  UNL1       -0.4361
     14 C         142.5657  137.1730  156.4040 C.ar    1  UNL1        0.1478
     15 C         142.3193  137.3240  154.9321 C.ar    1  UNL1        0.0391
     16 C         142.3556  136.1200  154.0381 C.ar    1  UNL1        0.0228
     17 C         142.6384  134.7650  154.6160 C.ar    1  UNL1        0.0881
     18 N         142.7374  133.4066  153.9877 N.ar    1  UNL1       -0.2363
     19 C         143.0450  132.4160  155.0712 C.ar    1  UNL1        0.1345
     20 S         143.1361  133.1622  156.3692 S.2     1  UNL1       -0.0644
     21 C         142.8848  134.6140  156.0879 C.ar    1  UNL1        0.0516
     22 C         142.8485  135.8179  156.9819 C.ar    1  UNL1        0.0456
     23 C         142.0551  138.0769  165.0720 C.3     1  UNL1        0.1115
     24 C         142.3501  139.3315  165.8394 C.3     1  UNL1        0.0388
     25 C         142.3134  139.3196  167.3390 C.3     1  UNL1        0.0048
     26 C         142.6084  140.5742  168.1064 C.3     1  UNL1        0.0174
     27 C         142.9402  141.8407  167.3743 C.3     1  UNL1        0.0720
     28 N         142.9769  141.8526  165.8748 N.3     1  UNL1       -0.2739
     29 C         142.6819  140.5980  165.1074 C.3     1  UNL1        0.0739
     30 C         143.3087  143.1190  165.1428 C.3     1  UNL1        0.0576
     31 C         144.6459  143.7700  165.3382 C.3     1  UNL1        0.0173
     32 C         142.3033  143.7346  164.2152 C.3     1  UNL1        0.0173
@<TRIPOS>BOND
     1     1     2    1
     2     2     3   ar
     3     3     4   ar
     4     4     5   ar
     5     5     6   ar
     6     6     7   ar
     7     7    13    1
     8    13    14    1
     9    14    15   ar
    10    15    16   ar
    11    16    17   ar
    12    17    18   ar
    13    18    19   ar
    14    19    20   ar
    15    20    21   ar
    16    21    22   ar
    17     7     8   ar
    18     8     9   ar
    19     9    10   ar
    20    10    11    2
    21    10    12   ar
    22    12    23    1
    23    24    23    1
    24    24    25    1
    25    25    26    1
    26    26    27    1
    27    27    28    1
    28    28    30    1
    29    30    31    1
    30    30    32    1
    31    28    29    1
    32    12     2   ar
    33    29    24    1
    34     9     4   ar
    35    22    14   ar
    36    21    17   ar
@<TRIPOS>MOLECULE
*****
 32 36 0 0 0
SMALL
GASTEIGER

@<TRIPOS>ATOM
      1 C         139.9953  143.4602  166.5999 C.3     1  UNL1        0.0719
      2 C         140.3967  143.7136  165.1769 C.ar    1  UNL1        0.1229
      3 N         139.5829  144.6387  164.3215 N.ar    1  UNL1       -0.2306
      4 C         139.9843  144.8921  162.8985 C.ar    1  UNL1        0.1065
      5 C         139.1704  145.8172  162.0431 C.ar    1  UNL1        0.1213
      6 N         139.5719  146.0706  160.6202 N.ar    1  UNL1       -0.2082
      7 C         140.7871  145.3988  160.0527 C.ar    1  UNL1        0.2299
      8 C         141.6009  144.4737  160.9082 C.ar    1  UNL1        0.0644
      9 C         141.1995  144.2204  162.3311 C.ar    1  UNL1        0.0800
     10 C         142.0134  143.2952  163.1866 C.ar    1  UNL1        0.2633
     11 O         143.2286  142.6235  162.6191 O.2     1  UNL1       -0.2669
     12 N         141.6120  143.0419  164.6095 N.ar    1  UNL1       -0.2840
     13 O         141.1885  145.6523  158.6298 O.3     1  UNL1       -0.4361
     14 C         140.1887  145.4756  157.5257 C.ar    1  UNL1        0.1478
     15 C         139.7819  146.6508  156.6870 C.ar    1  UNL1        0.0391
     16 C         138.7820  146.4741  155.5829 C.ar    1  UNL1        0.0228
     17 C         138.1890  145.1222  155.3174 C.ar    1  UNL1        0.0881
     18 N         137.1886  144.6459  154.3062 N.ar    1  UNL1       -0.2363
     19 C         136.9772  143.1764  154.5198 C.ar    1  UNL1        0.1345
     20 S         137.8468  142.7444  155.6631 S.2     1  UNL1       -0.0644
     21 C         138.5958  143.9469  156.1560 C.ar    1  UNL1        0.0516
     22 C         139.5956  144.1236  157.2601 C.ar    1  UNL1        0.0456
     23 C         142.4258  142.1167  165.4650 C.3     1  UNL1        0.1115
     24 C         142.2449  140.6323  165.3469 C.3     1  UNL1        0.0388
     25 C         143.4143  139.7156  165.5523 C.3     1  UNL1        0.0048
     26 C         143.2334  138.2312  165.4342 C.3     1  UNL1        0.0174
     27 C         141.8831  137.6636  165.1108 C.3     1  UNL1        0.0720
     28 N         140.7138  138.5804  164.9054 N.3     1  UNL1       -0.2739
     29 C         140.8947  140.0647  165.0235 C.3     1  UNL1        0.0739
     30 C         139.3636  138.0128  164.5820 C.3     1  UNL1        0.0576
     31 C         138.9737  137.7720  163.1537 C.3     1  UNL1        0.0173
     32 C         138.4031  137.6859  165.6869 C.3     1  UNL1        0.0173
@<TRIPOS>BOND
     1     1     2    1
     2     2     3   ar
     3     3     4   ar
     4     4     5   ar
     5     5     6   ar
     6     6     7   ar
     7     7    13    1
     8    13    14    1
     9    14    15   ar
    10    15    16   ar
    11    16    17   ar
    12    17    18   ar
    13    18    19   ar
    14    19    20   ar
    15    20    21   ar
    16    21    22   ar
    17     7     8   ar
    18     8     9   ar
    19     9    10   ar
    20    10    11    2
    21    10    12   ar
    22    12    23    1
    23    24    23    1
    24    24    25    1
    25    25    26    1
    26    26    27    1
    27    27    28    1
    28    28    30    1
    29    30    31    1
    30    30    32    1
    31    28    29    1
    32    12     2   ar
    33    29    24    1
    34     9     4   ar
    35    22    14   ar
    36    21    17   ar
