@<TRIPOS>MOLECULE
*****
 41 44 0 0 0
SMALL
GASTEIGER

@<TRIPOS>ATOM
      1 C         142.6771  140.7579  156.0713 C.ar    1  UNL1        0.0001
      2 C         141.1948  140.8763  155.8744 C.ar    1  UNL1       -0.0003
      3 C         140.5302  142.2177  155.9702 C.ar    1  UNL1       -0.0042
      4 C         141.3480  143.4406  156.2628 C.ar    1  UNL1       -0.0206
      5 C         142.8303  143.3223  156.4596 C.ar    1  UNL1       -0.0042
      6 C         143.4948  141.9809  156.3639 C.ar    1  UNL1       -0.0003
      7 C         140.6834  144.7819  156.3586 C.3     1  UNL1        0.0483
      8 C         140.3655  145.6925  155.2097 C.3     1  UNL1        0.0770
      9 N         139.7057  146.9216  155.7611 N.3     1  UNL1       -0.2698
     10 C         139.6158  146.7707  157.2508 C.3     1  UNL1        0.0816
     11 C         140.2202  145.4483  157.6201 C.3     1  UNL1        0.0981
     12 C         140.3401  144.8904  159.0073 C.2     1  UNL1        0.2274
     13 O         139.3297  143.9010  159.5077 O.2     1  UNL1       -0.2747
     14 N         141.4703  145.3218  159.8940 N.am    1  UNL1       -0.2839
     15 H         142.1335  145.9711  159.5656 H       1  UNL1        0.1549
     16 C         141.5903  144.7638  161.2812 C.ar    1  UNL1        0.0504
     17 C         142.4138  143.5343  161.5265 C.ar    1  UNL1        0.0155
     18 C         142.5337  142.9764  162.9137 C.ar    1  UNL1        0.0127
     19 C         141.8302  143.6478  164.0556 C.ar    1  UNL1        0.0578
     20 CL        141.9501  143.0899  165.4428 Cl      1  UNL1       -0.0822
     21 C         141.0066  144.8773  163.8104 C.ar    1  UNL1        0.0127
     22 C         140.8867  145.4353  162.4232 C.ar    1  UNL1        0.0155
     23 C         139.2209  148.0953  154.9630 C.3     1  UNL1        0.1043
     24 C         138.9825  149.4138  155.6373 C.3     1  UNL1        0.1544
     25 O         137.6184  149.7525  156.1614 O.3     1  UNL1       -0.3805
     26 H         136.9985  149.8351  155.4199 H       1  UNL1        0.2105
     27 C         142.5770  138.1742  156.3244 C.2     1  UNL1        0.0580
     28 C         143.3416  139.4166  155.9755 C.2     1  UNL1        0.0047
     29 N         142.4946  135.5954  156.6298 N.am    1  UNL1       -0.2794
     30 C         143.2415  136.8328  156.2286 C.2     1  UNL1        0.2497
     31 O         144.6530  136.7289  155.7317 O.2     1  UNL1       -0.2698
     32 H         141.5682  135.6637  156.9559 H       1  UNL1        0.1552
     33 N         143.8109  134.3976  159.0449 N.pl3   1  UNL1       -0.3560
     34 C         143.8173  133.6552  157.7415 C.ar    1  UNL1        0.0552
     35 C         144.4818  132.3138  157.6457 C.ar    1  UNL1        0.0153
     36 C         144.4881  131.5714  156.3424 C.ar    1  UNL1        0.0013
     37 C         143.8300  132.1702  155.1349 C.ar    1  UNL1        0.0014
     38 C         143.1655  133.5116  155.2307 C.ar    1  UNL1        0.0159
     39 C         143.1592  134.2540  156.5340 C.ar    1  UNL1        0.0636
     40 H         144.2429  134.0045  159.8374 H       1  UNL1        0.1424
     41 H         143.3748  135.2780  159.1078 H       1  UNL1        0.1424
@<TRIPOS>BOND
     1    33    34    1
     2    34    35   ar
     3    35    36   ar
     4    36    37   ar
     5    37    38   ar
     6    38    39   ar
     7    39    29    1
     8    29    30   am
     9    30    31    2
    10    30    27    1
    11    27    28    2
    12    28     1    1
    13     1     2   ar
    14     2     3   ar
    15     3     4   ar
    16     7     4    1
    17     7     8    1
    18     8     9    1
    19     9    23    1
    20    23    24    1
    21    24    25    1
    22     9    10    1
    23    10    11    1
    24    11    12    1
    25    12    13    2
    26    12    14   am
    27    14    16    1
    28    16    17   ar
    29    17    18   ar
    30    18    19   ar
    31    19    20    1
    32    19    21   ar
    33    21    22   ar
    34     4     5   ar
    35     5     6   ar
    36    39    34   ar
    37     6     1   ar
    38    11     7    1
    39    22    16   ar
    40    33    40    1
    41    33    41    1
    42    29    32    1
    43    25    26    1
    44    14    15    1
@<TRIPOS>MOLECULE
*****
 41 44 0 0 0
SMALL
GASTEIGER

@<TRIPOS>ATOM
      1 C         142.7102  140.6601  156.2723 C.ar    1  UNL1        0.0001
      2 C         141.2137  140.7453  156.2153 C.ar    1  UNL1       -0.0003
      3 C         140.5360  142.0823  156.2721 C.ar    1  UNL1       -0.0042
      4 C         141.3547  143.3340  156.3858 C.ar    1  UNL1       -0.0206
      5 C         142.8512  143.2487  156.4428 C.ar    1  UNL1       -0.0042
      6 C         143.5290  141.9118  156.3861 C.ar    1  UNL1       -0.0003
      7 C         140.6770  144.6709  156.4426 C.3     1  UNL1        0.0483
      8 C         140.1684  145.4523  155.2674 C.3     1  UNL1        0.0770
      9 N         139.5659  146.7255  155.7829 N.3     1  UNL1       -0.2698
     10 C         139.7020  146.7311  157.2768 C.3     1  UNL1        0.0816
     11 C         140.3887  145.4613  157.6845 C.3     1  UNL1        0.0981
     12 C         140.7275  145.0535  159.0876 C.2     1  UNL1        0.2274
     13 O         142.1609  144.9931  159.5257 O.2     1  UNL1       -0.2747
     14 N         139.6331  144.7060  160.0527 N.am    1  UNL1       -0.2839
     15 H         138.6923  144.7456  159.7652 H       1  UNL1        0.1549
     16 C         139.9719  144.2982  161.4558 C.ar    1  UNL1        0.0504
     17 C         139.8618  145.2928  162.5733 C.ar    1  UNL1        0.0155
     18 C         140.2007  144.8851  163.9764 C.ar    1  UNL1        0.0127
     19 C         140.6497  143.4827  164.2622 C.ar    1  UNL1        0.0578
     20 CL        140.9885  143.0749  165.6654 Cl      1  UNL1       -0.0822
     21 C         140.7598  142.4881  163.1448 C.ar    1  UNL1        0.0127
     22 C         140.4209  142.8959  161.7417 C.ar    1  UNL1        0.0155
     23 C         138.9376  147.8037  154.9508 C.3     1  UNL1        0.1043
     24 C         138.8929  149.2139  155.4601 C.3     1  UNL1        0.1544
     25 O         137.6779  149.7112  156.1858 O.3     1  UNL1       -0.3805
     26 H         136.9241  149.7350  155.5758 H       1  UNL1        0.2105
     27 C         142.5694  138.0663  156.2262 C.2     1  UNL1        0.0580
     28 C         143.3880  139.3231  156.2156 C.2     1  UNL1        0.0047
     29 N         142.4844  135.4863  156.5206 N.am    1  UNL1       -0.2794
     30 C         143.2471  136.7293  156.1694 C.2     1  UNL1        0.2497
     31 O         144.6875  136.6353  155.7615 O.2     1  UNL1       -0.2698
     32 H         141.5391  135.5480  156.7883 H       1  UNL1        0.1552
     33 N         143.8092  134.3708  158.9703 N.pl3   1  UNL1       -0.3560
     34 C         143.8245  133.5916  157.6887 C.ar    1  UNL1        0.0552
     35 C         144.5022  132.2547  157.6319 C.ar    1  UNL1        0.0153
     36 C         144.5176  131.4754  156.3502 C.ar    1  UNL1        0.0013
     37 C         143.8552  132.0331  155.1254 C.ar    1  UNL1        0.0014
     38 C         143.1775  133.3701  155.1822 C.ar    1  UNL1        0.0159
     39 C         143.1622  134.1493  156.4638 C.ar    1  UNL1        0.0636
     40 H         144.2439  134.0048  159.7742 H       1  UNL1        0.1424
     41 H         143.3643  135.2483  159.0076 H       1  UNL1        0.1424
@<TRIPOS>BOND
     1    33    34    1
     2    34    35   ar
     3    35    36   ar
     4    36    37   ar
     5    37    38   ar
     6    38    39   ar
     7    39    29    1
     8    29    30   am
     9    30    31    2
    10    30    27    1
    11    27    28    2
    12    28     1    1
    13     1     2   ar
    14     2     3   ar
    15     3     4   ar
    16     7     4    1
    17     7     8    1
    18     8     9    1
    19     9    23    1
    20    23    24    1
    21    24    25    1
    22     9    10    1
    23    10    11    1
    24    11    12    1
    25    12    13    2
    26    12    14   am
    27    14    16    1
    28    16    17   ar
    29    17    18   ar
    30    18    19   ar
    31    19    20    1
    32    19    21   ar
    33    21    22   ar
    34     4     5   ar
    35     5     6   ar
    36    39    34   ar
    37     6     1   ar
    38    11     7    1
    39    22    16   ar
    40    33    40    1
    41    33    41    1
    42    29    32    1
    43    25    26    1
    44    14    15    1
@<TRIPOS>MOLECULE
*****
 41 44 0 0 0
SMALL
GASTEIGER

@<TRIPOS>ATOM
      1 C         142.8016  138.0122  161.8975 C.ar    1  UNL1        0.0001
      2 C         143.9134  138.8052  162.5179 C.ar    1  UNL1       -0.0003
      3 C         143.8068  139.2574  163.9442 C.ar    1  UNL1       -0.0042
      4 C         142.5884  138.9165  164.7500 C.ar    1  UNL1       -0.0206
      5 C         141.4766  138.1236  164.1295 C.ar    1  UNL1       -0.0042
      6 C         141.5831  137.6714  162.7033 C.ar    1  UNL1       -0.0003
      7 C         142.4819  139.3687  166.1762 C.3     1  UNL1        0.0483
      8 C         142.9831  138.6229  167.3774 C.3     1  UNL1        0.0770
      9 N         142.6664  139.4393  168.5953 N.3     1  UNL1       -0.2698
     10 C         141.9695  140.6897  168.1469 C.3     1  UNL1        0.0816
     11 C         141.8555  140.6460  166.6518 C.3     1  UNL1        0.0981
     12 C         141.2256  141.6954  165.7846 C.2     1  UNL1        0.2274
     13 O         139.8346  142.1745  166.0774 O.2     1  UNL1       -0.2747
     14 N         141.9866  142.2656  164.6246 N.am    1  UNL1       -0.2839
     15 H         142.8996  141.9511  164.4324 H       1  UNL1        0.1549
     16 C         141.3568  143.3150  163.7574 C.ar    1  UNL1        0.0504
     17 C         140.3983  142.9168  162.6745 C.ar    1  UNL1        0.0155
     18 C         139.7684  143.9662  161.8073 C.ar    1  UNL1        0.0127
     19 C         140.0969  145.4138  162.0230 C.ar    1  UNL1        0.0578
     20 CL        139.4671  146.4631  161.1558 Cl      1  UNL1       -0.0822
     21 C         141.0554  145.8119  163.1059 C.ar    1  UNL1        0.0127
     22 C         141.6853  144.7625  163.9731 C.ar    1  UNL1        0.0155
     23 C         142.9899  139.0702  170.0127 C.3     1  UNL1        0.1043
     24 C         143.2685  140.1439  171.0224 C.3     1  UNL1        0.1544
     25 O         142.1821  140.6016  171.9499 O.3     1  UNL1       -0.3805
     26 H         141.4827  141.0375  171.4384 H       1  UNL1        0.2105
     27 C         142.5034  138.4825  159.3599 C.2     1  UNL1        0.0580
     28 C         142.9081  137.5601  160.4713 C.2     1  UNL1        0.0047
     29 N         141.6076  137.0634  157.3764 N.am    1  UNL1       -0.2794
     30 C         142.6099  138.0304  157.9335 C.2     1  UNL1        0.2497
     31 O         143.7187  138.5453  157.0644 O.2     1  UNL1       -0.2698
     32 H         140.8799  136.7255  157.9469 H       1  UNL1        0.1552
     33 N         143.3427  134.7198  156.6713 N.pl3   1  UNL1       -0.3560
     34 C         142.5817  135.4395  155.5976 C.ar    1  UNL1        0.0552
     35 C         142.6882  134.9875  154.1713 C.ar    1  UNL1        0.0153
     36 C         141.9272  135.7072  153.0976 C.ar    1  UNL1        0.0013
     37 C         141.0597  136.8789  153.4501 C.ar    1  UNL1        0.0014
     38 C         140.9532  137.3310  154.8764 C.ar    1  UNL1        0.0159
     39 C         141.7142  136.6113  155.9501 C.ar    1  UNL1        0.0636
     40 H         143.9121  133.9507  156.4399 H       1  UNL1        0.1424
     41 H         143.2728  135.0166  157.6074 H       1  UNL1        0.1424
@<TRIPOS>BOND
     1    33    34    1
     2    34    35   ar
     3    35    36   ar
     4    36    37   ar
     5    37    38   ar
     6    38    39   ar
     7    39    29    1
     8    29    30   am
     9    30    31    2
    10    30    27    1
    11    27    28    2
    12    28     1    1
    13     1     2   ar
    14     2     3   ar
    15     3     4   ar
    16     7     4    1
    17     7     8    1
    18     8     9    1
    19     9    23    1
    20    23    24    1
    21    24    25    1
    22     9    10    1
    23    10    11    1
    24    11    12    1
    25    12    13    2
    26    12    14   am
    27    14    16    1
    28    16    17   ar
    29    17    18   ar
    30    18    19   ar
    31    19    20    1
    32    19    21   ar
    33    21    22   ar
    34     4     5   ar
    35     5     6   ar
    36    39    34   ar
    37     6     1   ar
    38    11     7    1
    39    22    16   ar
    40    33    40    1
    41    33    41    1
    42    29    32    1
    43    25    26    1
    44    14    15    1
@<TRIPOS>MOLECULE
*****
 41 44 0 0 0
SMALL
GASTEIGER

@<TRIPOS>ATOM
      1 C         142.0814  138.9495  159.3287 C.ar    1  UNL1        0.0001
      2 C         143.0696  140.0105  159.7130 C.ar    1  UNL1       -0.0003
      3 C         142.6054  141.2431  160.4310 C.ar    1  UNL1       -0.0042
      4 C         141.1532  141.4145  160.7647 C.ar    1  UNL1       -0.0206
      5 C         140.1650  140.3534  160.3805 C.ar    1  UNL1       -0.0042
      6 C         140.6291  139.1210  159.6625 C.ar    1  UNL1       -0.0003
      7 C         140.6890  142.6470  161.4827 C.3     1  UNL1        0.0483
      8 C         140.5641  142.8072  162.9690 C.3     1  UNL1        0.0770
      9 N         140.0662  144.1949  163.2454 N.3     1  UNL1       -0.2698
     10 C         139.8834  144.8924  161.9300 C.3     1  UNL1        0.0816
     11 C         140.2683  143.9357  160.8406 C.3     1  UNL1        0.0981
     12 C         140.2379  144.2181  159.3678 C.2     1  UNL1        0.2274
     13 O         139.3411  143.4191  158.4693 O.2     1  UNL1       -0.2747
     14 N         141.1042  145.2996  158.7935 N.am    1  UNL1       -0.2839
     15 H         141.6928  145.8240  159.3833 H       1  UNL1        0.1549
     16 C         141.0738  145.5821  157.3207 C.ar    1  UNL1        0.0504
     17 C         140.0350  146.5047  156.7553 C.ar    1  UNL1        0.0155
     18 C         140.0045  146.7872  155.2824 C.ar    1  UNL1        0.0127
     19 C         141.0128  146.1471  154.3749 C.ar    1  UNL1        0.0578
     20 CL        140.9824  146.4296  152.9021 Cl      1  UNL1       -0.0822
     21 C         142.0516  145.2245  154.9404 C.ar    1  UNL1        0.0127
     22 C         142.0821  144.9420  156.4132 C.ar    1  UNL1        0.0155
     23 C         139.7982  144.7820  164.5994 C.3     1  UNL1        0.1043
     24 C         138.4152  144.7326  165.1779 C.3     1  UNL1        0.1544
     25 O         138.0685  145.5796  166.3663 O.3     1  UNL1       -0.3805
     26 H         138.5771  145.2802  167.1361 H       1  UNL1        0.2105
     27 C         142.3501  137.5941  157.1286 C.2     1  UNL1        0.0580
     28 C         142.5455  137.7170  158.6107 C.2     1  UNL1        0.0047
     29 N         141.9238  135.1568  156.3363 N.am    1  UNL1       -0.2794
     30 C         142.8142  136.3616  156.4105 C.2     1  UNL1        0.2497
     31 O         144.1687  136.3340  155.7667 O.2     1  UNL1       -0.2698
     32 H         141.0348  135.1749  156.7588 H       1  UNL1        0.1552
     33 N         143.4180  133.0250  157.8273 N.pl3   1  UNL1       -0.3560
     34 C         143.1350  132.8584  156.3637 C.ar    1  UNL1        0.0552
     35 C         143.5990  131.6260  155.6456 C.ar    1  UNL1        0.0153
     36 C         143.3160  131.4594  154.1820 C.ar    1  UNL1        0.0013
     37 C         142.5690  132.5252  153.4365 C.ar    1  UNL1        0.0014
     38 C         142.1049  133.7576  154.1546 C.ar    1  UNL1        0.0159
     39 C         142.3879  133.9242  155.6182 C.ar    1  UNL1        0.0636
     40 H         143.9083  132.3255  158.3166 H       1  UNL1        0.1424
     41 H         143.1134  133.8339  158.2986 H       1  UNL1        0.1424
@<TRIPOS>BOND
     1    33    34    1
     2    34    35   ar
     3    35    36   ar
     4    36    37   ar
     5    37    38   ar
     6    38    39   ar
     7    39    29    1
     8    29    30   am
     9    30    31    2
    10    30    27    1
    11    27    28    2
    12    28     1    1
    13     1     2   ar
    14     2     3   ar
    15     3     4   ar
    16     7     4    1
    17     7     8    1
    18     8     9    1
    19     9    23    1
    20    23    24    1
    21    24    25    1
    22     9    10    1
    23    10    11    1
    24    11    12    1
    25    12    13    2
    26    12    14   am
    27    14    16    1
    28    16    17   ar
    29    17    18   ar
    30    18    19   ar
    31    19    20    1
    32    19    21   ar
    33    21    22   ar
    34     4     5   ar
    35     5     6   ar
    36    39    34   ar
    37     6     1   ar
    38    11     7    1
    39    22    16   ar
    40    33    40    1
    41    33    41    1
    42    29    32    1
    43    25    26    1
    44    14    15    1
@<TRIPOS>MOLECULE
*****
 41 44 0 0 0
SMALL
GASTEIGER

@<TRIPOS>ATOM
      1 C         141.4064  139.1664  156.5233 C.ar    1  UNL1        0.0001
      2 C         140.0186  139.6814  156.2807 C.ar    1  UNL1       -0.0003
      3 C         139.7266  141.1459  156.4226 C.ar    1  UNL1       -0.0042
      4 C         140.8224  142.0953  156.8072 C.ar    1  UNL1       -0.0206
      5 C         142.2101  141.5803  157.0498 C.ar    1  UNL1       -0.0042
      6 C         142.5021  140.1159  156.9079 C.ar    1  UNL1       -0.0003
      7 C         140.5304  143.5597  156.9491 C.3     1  UNL1        0.0483
      8 C         140.5802  144.5793  155.8500 C.3     1  UNL1        0.0770
      9 N         140.2179  145.9115  156.4366 N.3     1  UNL1       -0.2698
     10 C         139.9441  145.7153  157.8984 C.3     1  UNL1        0.0816
     11 C         140.1372  144.2618  158.2151 C.3     1  UNL1        0.0981
     12 C         139.9671  143.6226  159.5614 C.2     1  UNL1        0.2274
     13 O         141.0829  143.6743  160.5626 O.2     1  UNL1       -0.2747
     14 N         138.6812  142.9318  159.9065 N.am    1  UNL1       -0.2839
     15 H         137.9489  142.8978  159.2493 H       1  UNL1        0.1549
     16 C         138.5110  142.2926  161.2527 C.ar    1  UNL1        0.0504
     17 C         137.9146  143.0755  162.3847 C.ar    1  UNL1        0.0155
     18 C         137.7444  142.4364  163.7310 C.ar    1  UNL1        0.0127
     19 C         138.1707  141.0143  163.9454 C.ar    1  UNL1        0.0578
     20 CL        138.0005  140.3752  165.2917 Cl      1  UNL1       -0.0822
     21 C         138.7671  140.2314  162.8135 C.ar    1  UNL1        0.0127
     22 C         138.9372  140.8705  161.4672 C.ar    1  UNL1        0.0155
     23 C         140.1426  147.2115  155.6923 C.3     1  UNL1        0.1043
     24 C         138.8450  147.6526  155.0826 C.3     1  UNL1        0.1544
     25 O         137.7918  146.6392  154.7455 O.3     1  UNL1       -0.3805
     26 H         138.1151  146.0601  154.0376 H       1  UNL1        0.2105
     27 C         143.1173  137.2158  156.3914 C.2     1  UNL1        0.0580
     28 C         141.6984  137.7020  156.3814 C.2     1  UNL1        0.0047
     29 N         143.2620  134.8392  157.4310 N.am    1  UNL1       -0.2794
     30 C         143.4094  135.7513  156.2494 C.2     1  UNL1        0.2497
     31 O         143.8488  135.1991  154.9258 O.2     1  UNL1       -0.2698
     32 H         142.9736  135.2017  158.2998 H       1  UNL1        0.1552
     33 N         141.4545  133.1019  155.7834 N.pl3   1  UNL1       -0.3560
     34 C         142.6503  132.5061  156.4653 C.ar    1  UNL1        0.0552
     35 C         142.9424  131.0417  156.3234 C.ar    1  UNL1        0.0153
     36 C         144.1383  130.4459  157.0053 C.ar    1  UNL1        0.0013
     37 C         145.0420  131.3146  157.8291 C.ar    1  UNL1        0.0014
     38 C         144.7499  132.7789  157.9710 C.ar    1  UNL1        0.0159
     39 C         143.5541  133.3747  157.2891 C.ar    1  UNL1        0.0636
     40 H         140.8613  132.5318  155.2427 H       1  UNL1        0.1424
     41 H         141.2628  134.0631  155.8765 H       1  UNL1        0.1424
@<TRIPOS>BOND
     1    33    34    1
     2    34    35   ar
     3    35    36   ar
     4    36    37   ar
     5    37    38   ar
     6    38    39   ar
     7    39    29    1
     8    29    30   am
     9    30    31    2
    10    30    27    1
    11    27    28    2
    12    28     1    1
    13     1     2   ar
    14     2     3   ar
    15     3     4   ar
    16     7     4    1
    17     7     8    1
    18     8     9    1
    19     9    23    1
    20    23    24    1
    21    24    25    1
    22     9    10    1
    23    10    11    1
    24    11    12    1
    25    12    13    2
    26    12    14   am
    27    14    16    1
    28    16    17   ar
    29    17    18   ar
    30    18    19   ar
    31    19    20    1
    32    19    21   ar
    33    21    22   ar
    34     4     5   ar
    35     5     6   ar
    36    39    34   ar
    37     6     1   ar
    38    11     7    1
    39    22    16   ar
    40    33    40    1
    41    33    41    1
    42    29    32    1
    43    25    26    1
    44    14    15    1
@<TRIPOS>MOLECULE
*****
 41 44 0 0 0
SMALL
GASTEIGER

@<TRIPOS>ATOM
      1 C         141.8974  137.7394  157.5878 C.ar    1  UNL1        0.0001
      2 C         142.9144  138.7136  158.1041 C.ar    1  UNL1       -0.0003
      3 C         142.4880  140.0864  158.5326 C.ar    1  UNL1       -0.0042
      4 C         141.0446  140.4850  158.4448 C.ar    1  UNL1       -0.0206
      5 C         140.0276  139.5108  157.9285 C.ar    1  UNL1       -0.0042
      6 C         140.4539  138.1380  157.5000 C.ar    1  UNL1       -0.0003
      7 C         140.6183  141.8578  158.8733 C.3     1  UNL1        0.0483
      8 C         140.9120  143.1384  158.1494 C.3     1  UNL1        0.0770
      9 N         140.2986  144.2631  158.9296 N.3     1  UNL1       -0.2698
     10 C         139.6258  143.6777  160.1358 C.3     1  UNL1        0.0816
     11 C         139.8234  142.1911  160.1010 C.3     1  UNL1        0.0981
     12 C         139.3153  141.2102  161.1156 C.2     1  UNL1        0.2274
     13 O         138.0926  140.3925  160.8216 O.2     1  UNL1       -0.2747
     14 N         140.0299  141.0469  162.4243 N.am    1  UNL1       -0.2839
     15 H         140.8325  141.5835  162.6173 H       1  UNL1        0.1549
     16 C         139.5218  140.0659  163.4390 C.ar    1  UNL1        0.0504
     17 C         139.8767  138.6133  163.3210 C.ar    1  UNL1        0.0155
     18 C         139.3686  137.6323  164.3357 C.ar    1  UNL1        0.0127
     19 C         138.5057  138.1039  165.4683 C.ar    1  UNL1        0.0578
     20 CL        137.9976  137.1230  166.4830 Cl      1  UNL1       -0.0822
     21 C         138.1509  139.5566  165.5863 C.ar    1  UNL1        0.0127
     22 C         138.6589  140.5375  164.5716 C.ar    1  UNL1        0.0155
     23 C         140.3492  145.7177  158.5674 C.3     1  UNL1        0.1043
     24 C         140.5838  146.1284  157.1439 C.3     1  UNL1        0.1544
     25 O         139.8159  147.2761  156.5580 O.3     1  UNL1       -0.3805
     26 H         138.8756  147.0434  156.5068 H       1  UNL1        0.2105
     27 C         141.8625  135.8148  155.8430 C.2     1  UNL1        0.0580
     28 C         142.3237  136.3666  157.1593 C.2     1  UNL1        0.0047
     29 N         142.4836  133.3633  156.4384 N.am    1  UNL1       -0.2794
     30 C         142.2888  134.4419  155.4144 C.2     1  UNL1        0.2497
     31 O         142.5203  134.1478  153.9618 O.2     1  UNL1       -0.2698
     32 H         142.3317  133.5564  157.3917 H       1  UNL1        0.1552
     33 N         145.3587  132.5414  156.6808 N.pl3   1  UNL1       -0.3560
     34 C         144.3475  131.5795  156.1310 C.ar    1  UNL1        0.0552
     35 C         144.7737  130.2067  155.7025 C.ar    1  UNL1        0.0153
     36 C         143.7625  129.2449  155.1527 C.ar    1  UNL1        0.0013
     37 C         142.3250  129.6558  155.0314 C.ar    1  UNL1        0.0014
     38 C         141.8988  131.0286  155.4600 C.ar    1  UNL1        0.0159
     39 C         142.9100  131.9905  156.0098 C.ar    1  UNL1        0.0636
     40 H         146.3021  132.2716  156.7604 H       1  UNL1        0.1424
     41 H         145.0789  133.4424  156.9621 H       1  UNL1        0.1424
@<TRIPOS>BOND
     1    33    34    1
     2    34    35   ar
     3    35    36   ar
     4    36    37   ar
     5    37    38   ar
     6    38    39   ar
     7    39    29    1
     8    29    30   am
     9    30    31    2
    10    30    27    1
    11    27    28    2
    12    28     1    1
    13     1     2   ar
    14     2     3   ar
    15     3     4   ar
    16     7     4    1
    17     7     8    1
    18     8     9    1
    19     9    23    1
    20    23    24    1
    21    24    25    1
    22     9    10    1
    23    10    11    1
    24    11    12    1
    25    12    13    2
    26    12    14   am
    27    14    16    1
    28    16    17   ar
    29    17    18   ar
    30    18    19   ar
    31    19    20    1
    32    19    21   ar
    33    21    22   ar
    34     4     5   ar
    35     5     6   ar
    36    39    34   ar
    37     6     1   ar
    38    11     7    1
    39    22    16   ar
    40    33    40    1
    41    33    41    1
    42    29    32    1
    43    25    26    1
    44    14    15    1
@<TRIPOS>MOLECULE
*****
 41 44 0 0 0
SMALL
GASTEIGER

@<TRIPOS>ATOM
      1 C         139.1058  141.6620  156.2352 C.ar    1  UNL1        0.0001
      2 C         139.7289  143.0159  156.4048 C.ar    1  UNL1       -0.0003
      3 C         141.2210  143.1505  156.4806 C.ar    1  UNL1       -0.0042
      4 C         142.0898  141.9314  156.3868 C.ar    1  UNL1       -0.0206
      5 C         141.4667  140.5776  156.2172 C.ar    1  UNL1       -0.0042
      6 C         139.9747  140.4428  156.1414 C.ar    1  UNL1       -0.0003
      7 C         143.5818  142.0662  156.4626 C.3     1  UNL1        0.0483
      8 C         144.4807  142.5473  155.3623 C.3     1  UNL1        0.0770
      9 N         145.8914  142.5219  155.8717 N.3     1  UNL1       -0.2698
     10 C         145.8644  142.0251  157.2868 C.3     1  UNL1        0.0816
     11 C         144.4370  141.7434  157.6520 C.3     1  UNL1        0.0981
     12 C         143.9502  141.2293  158.9744 C.2     1  UNL1        0.2274
     13 O         143.4752  142.1900  160.0238 O.2     1  UNL1       -0.2747
     14 N         143.9385  139.7544  159.2473 N.am    1  UNL1       -0.2839
     15 H         144.2502  139.1238  158.5585 H       1  UNL1        0.1549
     16 C         143.4518  139.2402  160.5697 C.ar    1  UNL1        0.0504
     17 C         142.1667  138.4705  160.6482 C.ar    1  UNL1        0.0155
     18 C         141.6800  137.9563  161.9706 C.ar    1  UNL1        0.0127
     19 C         142.4782  138.2119  163.2145 C.ar    1  UNL1        0.0578
     20 CL        141.9915  137.6977  164.5369 Cl      1  UNL1       -0.0822
     21 C         143.7633  138.9816  163.1360 C.ar    1  UNL1        0.0127
     22 C         144.2500  139.4958  161.8137 C.ar    1  UNL1        0.0155
     23 C         147.1142  142.9230  155.1012 C.3     1  UNL1        0.1043
     24 C         148.2194  141.9332  154.8800 C.3     1  UNL1        0.1544
     25 O         149.1217  141.5501  156.0154 O.3     1  UNL1       -0.3805
     26 H         149.6455  142.3203  156.2862 H       1  UNL1        0.2105
     27 C         136.9972  140.5364  155.2171 C.2     1  UNL1        0.0580
     28 C         137.6138  141.5273  156.1594 C.2     1  UNL1        0.0047
     29 N         134.6722  140.5807  156.3758 N.am    1  UNL1       -0.2794
     30 C         135.5051  140.4016  155.1413 C.2     1  UNL1        0.2497
     31 O         134.8461  140.0878  153.8309 O.2     1  UNL1       -0.2698
     32 H         135.1048  140.7866  157.2359 H       1  UNL1        0.1552
     33 N         133.3118  138.2291  157.6484 N.pl3   1  UNL1       -0.3560
     34 C         132.5000  139.2701  156.9363 C.ar    1  UNL1        0.0552
     35 C         131.0080  139.1354  156.8604 C.ar    1  UNL1        0.0153
     36 C         130.1962  140.1764  156.1483 C.ar    1  UNL1        0.0013
     37 C         130.8763  141.3522  155.5120 C.ar    1  UNL1        0.0014
     38 C         132.3683  141.4869  155.5878 C.ar    1  UNL1        0.0159
     39 C         133.1801  140.4459  156.3000 C.ar    1  UNL1        0.0636
     40 H         132.8654  137.4573  158.0660 H       1  UNL1        0.1424
     41 H         134.2911  138.3175  157.6982 H       1  UNL1        0.1424
@<TRIPOS>BOND
     1    33    34    1
     2    34    35   ar
     3    35    36   ar
     4    36    37   ar
     5    37    38   ar
     6    38    39   ar
     7    39    29    1
     8    29    30   am
     9    30    31    2
    10    30    27    1
    11    27    28    2
    12    28     1    1
    13     1     2   ar
    14     2     3   ar
    15     3     4   ar
    16     7     4    1
    17     7     8    1
    18     8     9    1
    19     9    23    1
    20    23    24    1
    21    24    25    1
    22     9    10    1
    23    10    11    1
    24    11    12    1
    25    12    13    2
    26    12    14   am
    27    14    16    1
    28    16    17   ar
    29    17    18   ar
    30    18    19   ar
    31    19    20    1
    32    19    21   ar
    33    21    22   ar
    34     4     5   ar
    35     5     6   ar
    36    39    34   ar
    37     6     1   ar
    38    11     7    1
    39    22    16   ar
    40    33    40    1
    41    33    41    1
    42    29    32    1
    43    25    26    1
    44    14    15    1
@<TRIPOS>MOLECULE
*****
 41 44 0 0 0
SMALL
GASTEIGER

@<TRIPOS>ATOM
      1 C         142.0954  138.9026  162.6562 C.ar    1  UNL1        0.0001
      2 C         140.9409  138.9361  161.6991 C.ar    1  UNL1       -0.0003
      3 C         141.1400  138.5288  160.2692 C.ar    1  UNL1       -0.0042
      4 C         142.4935  138.0880  159.7964 C.ar    1  UNL1       -0.0206
      5 C         143.6481  138.0545  160.7535 C.ar    1  UNL1       -0.0042
      6 C         143.4490  138.4618  162.1833 C.ar    1  UNL1       -0.0003
      7 C         142.6926  137.6807  158.3666 C.3     1  UNL1        0.0483
      8 C         142.9799  136.2922  157.8771 C.3     1  UNL1        0.0770
      9 N         143.1041  136.3437  156.3832 N.3     1  UNL1       -0.2698
     10 C         142.8936  137.7641  155.9492 C.3     1  UNL1        0.0816
     11 C         142.6392  138.5904  157.1751 C.3     1  UNL1        0.0981
     12 C         142.3775  140.0671  157.2043 C.2     1  UNL1        0.2274
     13 O         143.5222  141.0296  157.3201 O.2     1  UNL1       -0.2747
     14 N         140.9711  140.5814  157.1176 N.am    1  UNL1       -0.2839
     15 H         140.2198  139.9497  157.0416 H       1  UNL1        0.1549
     16 C         140.7093  142.0580  157.1468 C.ar    1  UNL1        0.0504
     17 C         140.4594  142.7498  158.4541 C.ar    1  UNL1        0.0155
     18 C         140.1977  144.2265  158.4833 C.ar    1  UNL1        0.0127
     19 C         140.1858  145.0115  157.2052 C.ar    1  UNL1        0.0578
     20 CL        139.9241  146.4882  157.2344 Cl      1  UNL1       -0.0822
     21 C         140.4357  144.3198  155.8979 C.ar    1  UNL1        0.0127
     22 C         140.6974  142.8431  155.8687 C.ar    1  UNL1        0.0155
     23 C         143.3889  135.1794  155.4815 C.3     1  UNL1        0.1043
     24 C         143.4897  133.7959  156.0522 C.3     1  UNL1        0.1544
     25 O         144.7445  133.3620  156.7502 O.3     1  UNL1       -0.3805
     26 H         145.4742  133.3278  156.1120 H       1  UNL1        0.2105
     27 C         142.9660  139.0331  165.1005 C.2     1  UNL1        0.0580
     28 C         141.8964  139.3099  164.0860 C.2     1  UNL1        0.0047
     29 N         142.0005  140.6881  166.8551 N.am    1  UNL1       -0.2794
     30 C         142.7671  139.4404  166.5304 C.2     1  UNL1        0.2497
     31 O         143.3347  138.5999  167.6355 O.2     1  UNL1       -0.2698
     32 H         141.6280  141.2398  166.1297 H       1  UNL1        0.1552
     33 N         139.6016  139.7159  168.3718 N.pl3   1  UNL1       -0.3560
     34 C         140.6021  140.6093  169.0433 C.ar    1  UNL1        0.0552
     35 C         140.4032  141.0166  170.4732 C.ar    1  UNL1        0.0153
     36 C         141.4036  141.9100  171.1447 C.ar    1  UNL1        0.0013
     37 C         142.6030  142.3961  170.3864 C.ar    1  UNL1        0.0014
     38 C         142.8020  141.9888  168.9565 C.ar    1  UNL1        0.0159
     39 C         141.8015  141.0954  168.2850 C.ar    1  UNL1        0.0636
     40 H         138.8144  139.3968  168.8696 H       1  UNL1        0.1424
     41 H         139.7322  139.4486  167.4333 H       1  UNL1        0.1424
@<TRIPOS>BOND
     1    33    34    1
     2    34    35   ar
     3    35    36   ar
     4    36    37   ar
     5    37    38   ar
     6    38    39   ar
     7    39    29    1
     8    29    30   am
     9    30    31    2
    10    30    27    1
    11    27    28    2
    12    28     1    1
    13     1     2   ar
    14     2     3   ar
    15     3     4   ar
    16     7     4    1
    17     7     8    1
    18     8     9    1
    19     9    23    1
    20    23    24    1
    21    24    25    1
    22     9    10    1
    23    10    11    1
    24    11    12    1
    25    12    13    2
    26    12    14   am
    27    14    16    1
    28    16    17   ar
    29    17    18   ar
    30    18    19   ar
    31    19    20    1
    32    19    21   ar
    33    21    22   ar
    34     4     5   ar
    35     5     6   ar
    36    39    34   ar
    37     6     1   ar
    38    11     7    1
    39    22    16   ar
    40    33    40    1
    41    33    41    1
    42    29    32    1
    43    25    26    1
    44    14    15    1
@<TRIPOS>MOLECULE
*****
 41 44 0 0 0
SMALL
GASTEIGER

@<TRIPOS>ATOM
      1 C         137.7884  142.2439  156.5453 C.ar    1  UNL1        0.0001
      2 C         138.4122  141.1776  157.3961 C.ar    1  UNL1       -0.0003
      3 C         139.8815  141.2206  157.6949 C.ar    1  UNL1       -0.0042
      4 C         140.7270  142.3299  157.1430 C.ar    1  UNL1       -0.0206
      5 C         140.1032  143.3963  156.2923 C.ar    1  UNL1       -0.0042
      6 C         138.6339  143.3533  155.9934 C.ar    1  UNL1       -0.0003
      7 C         142.1962  142.3729  157.4419 C.3     1  UNL1        0.0483
      8 C         143.2924  141.8686  156.5507 C.3     1  UNL1        0.0770
      9 N         144.6010  142.1117  157.2424 N.3     1  UNL1       -0.2698
     10 C         144.3137  142.7663  158.5612 C.3     1  UNL1        0.0816
     11 C         142.8274  142.9277  158.6844 C.3     1  UNL1        0.0981
     12 C         142.1001  143.5369  159.8463 C.2     1  UNL1        0.2274
     13 O         142.0002  145.0285  159.9699 O.2     1  UNL1       -0.2747
     14 N         141.4726  142.6546  160.8844 N.am    1  UNL1       -0.2839
     15 H         141.5382  141.6756  160.8033 H       1  UNL1        0.1549
     16 C         140.7453  143.2638  162.0462 C.ar    1  UNL1        0.0504
     17 C         139.3060  143.6618  161.9048 C.ar    1  UNL1        0.0155
     18 C         138.5787  144.2711  163.0666 C.ar    1  UNL1        0.0127
     19 C         139.2906  144.4823  164.3699 C.ar    1  UNL1        0.0578
     20 CL        138.5632  145.0915  165.5317 Cl      1  UNL1       -0.0822
     21 C         140.7299  144.0842  164.5113 C.ar    1  UNL1        0.0127
     22 C         141.4572  143.4750  163.3495 C.ar    1  UNL1        0.0155
     23 C         145.9585  141.7618  156.7091 C.3     1  UNL1        0.1043
     24 C         146.0984  140.7188  155.6402 C.3     1  UNL1        0.1544
     25 O         145.9152  139.2689  155.9783 O.3     1  UNL1       -0.3805
     26 H         146.6239  138.9843  156.5764 H       1  UNL1        0.2105
     27 C         135.7694  141.1422  155.3372 C.2     1  UNL1        0.0580
     28 C         136.3191  142.2010  156.2464 C.2     1  UNL1        0.0047
     29 N         133.3054  141.1215  156.1608 N.am    1  UNL1       -0.2794
     30 C         134.3001  141.0992  155.0383 C.2     1  UNL1        0.2497
     31 O         133.8255  141.0338  153.6168 O.2     1  UNL1       -0.2698
     32 H         133.6169  141.1644  157.0937 H       1  UNL1        0.1552
     33 N         131.5028  139.3271  157.7517 N.pl3   1  UNL1       -0.3560
     34 C         130.9348  140.1813  156.6573 C.ar    1  UNL1        0.0552
     35 C         129.4656  140.1383  156.3584 C.ar    1  UNL1        0.0153
     36 C         128.8975  140.9925  155.2640 C.ar    1  UNL1        0.0013
     37 C         129.7988  141.8897  154.4685 C.ar    1  UNL1        0.0014
     38 C         131.2680  141.9327  154.7674 C.ar    1  UNL1        0.0159
     39 C         131.8360  141.0785  155.8618 C.ar    1  UNL1        0.0636
     40 H         130.9113  138.7383  158.2738 H       1  UNL1        0.1424
     41 H         132.4672  139.3553  157.9479 H       1  UNL1        0.1424
@<TRIPOS>BOND
     1    33    34    1
     2    34    35   ar
     3    35    36   ar
     4    36    37   ar
     5    37    38   ar
     6    38    39   ar
     7    39    29    1
     8    29    30   am
     9    30    31    2
    10    30    27    1
    11    27    28    2
    12    28     1    1
    13     1     2   ar
    14     2     3   ar
    15     3     4   ar
    16     7     4    1
    17     7     8    1
    18     8     9    1
    19     9    23    1
    20    23    24    1
    21    24    25    1
    22     9    10    1
    23    10    11    1
    24    11    12    1
    25    12    13    2
    26    12    14   am
    27    14    16    1
    28    16    17   ar
    29    17    18   ar
    30    18    19   ar
    31    19    20    1
    32    19    21   ar
    33    21    22   ar
    34     4     5   ar
    35     5     6   ar
    36    39    34   ar
    37     6     1   ar
    38    11     7    1
    39    22    16   ar
    40    33    40    1
    41    33    41    1
    42    29    32    1
    43    25    26    1
    44    14    15    1
