@<TRIPOS>MOLECULE
*****
 37 41 0 0 0
SMALL
GASTEIGER

@<TRIPOS>ATOM
      1 C         143.0769  143.3484  159.8432 C.2     1  UNL1        0.3360
      2 N         142.6057  144.5166  159.0287 N.2     1  UNL1        0.0754
      3 N         141.5607  145.2434  159.8222 N.2     1  UNL1       -0.0411
      4 C         141.3860  144.5244  161.1270 C.2     1  UNL1        0.1122
      5 C         142.3231  143.3532  161.1400 C.3     1  UNL1        0.1692
      6 C         142.1484  142.6342  162.4448 C.3     1  UNL1        0.1132
      7 N         141.1033  143.3610  163.2383 N.am    1  UNL1       -0.2617
      8 C         140.6152  142.9856  164.6060 C.2     1  UNL1        0.3044
      9 O         139.5596  143.8122  165.2787 O.2     1  UNL1       -0.2526
     10 N         141.1827  141.7835  165.3011 N.am    1  UNL1       -0.2852
     11 C         140.6321  144.5292  162.4239 C.3     1  UNL1        0.0976
     12 C         139.7408  144.7897  163.6019 C.3     1  UNL1        0.0259
     13 C         139.9746  145.7519  161.8558 C.3     1  UNL1        0.0259
     14 H         141.8755  141.2410  164.8596 H       1  UNL1        0.1513
     15 N         144.1189  142.3506  159.4329 N.pl3   1  UNL1       -0.1847
     16 H         145.0676  142.6123  159.4063 H       1  UNL1        0.2998
     17 C         142.4802  138.9316  155.8795 C.3     1  UNL1        0.0738
     18 C         142.8962  139.2445  157.2864 C.ar    1  UNL1        0.1430
     19 N         143.2996  140.6410  157.6562 N.ar    1  UNL1       -0.1937
     20 C         143.7155  140.9539  159.0631 C.ar    1  UNL1        0.2300
     21 C         143.7280  139.8701  160.1000 C.ar    1  UNL1        0.1032
     22 S         144.0879  139.8784  161.5562 S.2     1  UNL1       -0.0799
     23 C         143.9069  138.4870  162.0862 C.ar    1  UNL1        0.0372
     24 C         143.4351  137.6187  160.9577 C.ar    1  UNL1        0.0268
     25 C         143.3246  138.4735  159.7301 C.ar    1  UNL1        0.0940
     26 N         142.9087  138.1607  158.3233 N.ar    1  UNL1       -0.2299
     27 C         140.6946  141.4081  166.6689 C.3     1  UNL1        0.1115
     28 C         141.3320  142.0124  167.8848 C.ar    1  UNL1       -0.0031
     29 C         142.7559  141.6863  168.2256 C.ar    1  UNL1       -0.0026
     30 C         143.3933  142.2907  169.4415 C.ar    1  UNL1       -0.0003
     31 C         142.6068  143.2210  170.3166 C.ar    1  UNL1       -0.0000
     32 C         141.1829  143.5471  169.9758 C.ar    1  UNL1       -0.0003
     33 C         140.5455  142.9428  168.7599 C.ar    1  UNL1       -0.0026
     34 C         139.5690  140.4283  166.8207 C.3     1  UNL1        0.0966
     35 N         139.0031  139.7429  165.6124 N.3     1  UNL1       -0.2686
     36 C         138.0110  140.4556  164.7417 C.3     1  UNL1        0.0897
     37 C         139.4292  138.3449  165.2747 C.3     1  UNL1        0.0897
@<TRIPOS>BOND
     1    17    18    1
     2    18    19   ar
     3    19    20   ar
     4    20    15    1
     5    15     1    1
     6     1     2    2
     7     2     3    1
     8     3     4    2
     9     4     5    1
    10     5     6    1
    11     6     7    1
    12     7     8   am
    13     8     9    2
    14     8    10   am
    15    10    27    1
    16    27    34    1
    17    34    35    1
    18    35    36    1
    19    35    37    1
    20    27    28    1
    21    28    29   ar
    22    29    30   ar
    23    30    31   ar
    24    31    32   ar
    25    32    33   ar
    26     7    11    1
    27    11    12    1
    28    11    13    1
    29    20    21   ar
    30    21    22   ar
    31    22    23   ar
    32    23    24   ar
    33    24    25   ar
    34    25    26   ar
    35    26    18   ar
    36     5     1    1
    37    33    28   ar
    38    25    21   ar
    39    11     4    1
    40    15    16    1
    41    10    14    1
@<TRIPOS>MOLECULE
*****
 37 41 0 0 0
SMALL
GASTEIGER

@<TRIPOS>ATOM
      1 C         142.8489  143.2635  160.1635 C.2     1  UNL1        0.3360
      2 N         142.5390  144.5227  159.4095 N.2     1  UNL1        0.0754
      3 N         141.3895  145.2014  160.0934 N.2     1  UNL1       -0.0411
      4 C         140.9888  144.3618  161.2700 C.2     1  UNL1        0.1122
      5 C         141.8908  143.1641  161.3133 C.3     1  UNL1        0.1692
      6 C         141.4902  142.3244  162.4900 C.3     1  UNL1        0.1132
      7 N         140.3406  143.0032  163.1740 N.am    1  UNL1       -0.2617
      8 C         139.6263  142.5096  164.3970 C.2     1  UNL1        0.3044
      9 O         138.4881  143.3000  164.9711 O.2     1  UNL1       -0.2526
     10 N         140.0504  141.2254  165.0461 N.am    1  UNL1       -0.2852
     11 C         140.0307  144.2624  162.4200 C.3     1  UNL1        0.0976
     12 C         138.9612  144.4337  163.4576 C.3     1  UNL1        0.0259
     13 C         139.4973  145.5573  161.8829 C.3     1  UNL1        0.0259
     14 H         140.7975  140.7066  164.6693 H       1  UNL1        0.1513
     15 N         143.9274  142.2770  159.8267 N.pl3   1  UNL1       -0.1847
     16 H         144.6291  142.5167  159.1791 H       1  UNL1        0.2998
     17 C         142.8796  137.1906  159.6485 C.3     1  UNL1        0.0738
     18 C         143.4130  138.3820  160.3876 C.ar    1  UNL1        0.1430
     19 N         143.4035  139.7337  159.7377 N.ar    1  UNL1       -0.1937
     20 C         143.9369  140.9251  160.4768 C.ar    1  UNL1        0.2300
     21 C         144.4797  140.7646  161.8659 C.ar    1  UNL1        0.1032
     22 S         145.0677  141.7483  162.8336 S.2     1  UNL1       -0.0799
     23 C         145.4406  141.0045  164.0816 C.ar    1  UNL1        0.0372
     24 C         145.0830  139.5610  163.8853 C.ar    1  UNL1        0.0268
     25 C         144.4892  139.4127  162.5158 C.ar    1  UNL1        0.0940
     26 N         143.9558  138.2214  161.7767 N.ar    1  UNL1       -0.2299
     27 C         139.3361  140.7317  166.2692 C.3     1  UNL1        0.1115
     28 C         139.8559  141.0788  167.6327 C.ar    1  UNL1       -0.0031
     29 C         139.7093  140.1027  168.7622 C.ar    1  UNL1       -0.0026
     30 C         140.2291  140.4499  170.1257 C.ar    1  UNL1       -0.0003
     31 C         140.8956  141.7731  170.3598 C.ar    1  UNL1       -0.0000
     32 C         141.0422  142.7492  169.2303 C.ar    1  UNL1       -0.0003
     33 C         140.5224  142.4021  167.8668 C.ar    1  UNL1       -0.0026
     34 C         138.1019  139.8908  166.1288 C.3     1  UNL1        0.0966
     35 N         138.2171  138.3974  166.0477 N.3     1  UNL1       -0.2686
     36 C         139.1408  137.7697  165.0463 C.3     1  UNL1        0.0897
     37 C         137.4086  137.5317  166.9680 C.3     1  UNL1        0.0897
@<TRIPOS>BOND
     1    17    18    1
     2    18    19   ar
     3    19    20   ar
     4    20    15    1
     5    15     1    1
     6     1     2    2
     7     2     3    1
     8     3     4    2
     9     4     5    1
    10     5     6    1
    11     6     7    1
    12     7     8   am
    13     8     9    2
    14     8    10   am
    15    10    27    1
    16    27    34    1
    17    34    35    1
    18    35    36    1
    19    35    37    1
    20    27    28    1
    21    28    29   ar
    22    29    30   ar
    23    30    31   ar
    24    31    32   ar
    25    32    33   ar
    26     7    11    1
    27    11    12    1
    28    11    13    1
    29    20    21   ar
    30    21    22   ar
    31    22    23   ar
    32    23    24   ar
    33    24    25   ar
    34    25    26   ar
    35    26    18   ar
    36     5     1    1
    37    33    28   ar
    38    25    21   ar
    39    11     4    1
    40    15    16    1
    41    10    14    1
@<TRIPOS>MOLECULE
*****
 37 41 0 0 0
SMALL
GASTEIGER

@<TRIPOS>ATOM
      1 C         142.9046  143.6134  159.8522 C.2     1  UNL1        0.3360
      2 N         142.3588  144.7957  159.1077 N.2     1  UNL1        0.0754
      3 N         141.3152  145.4439  159.9684 N.2     1  UNL1       -0.0411
      4 C         141.2161  144.6623  161.2448 C.2     1  UNL1        0.1122
      5 C         142.1984  143.5310  161.1730 C.3     1  UNL1        0.1692
      6 C         142.0993  142.7492  162.4494 C.3     1  UNL1        0.1132
      7 N         141.0557  143.3975  163.3101 N.am    1  UNL1       -0.2617
      8 C         140.6323  142.9432  164.6754 C.2     1  UNL1        0.3044
      9 O         139.5699  143.6958  165.4204 O.2     1  UNL1       -0.2526
     10 N         141.2714  141.7363  165.2959 N.am    1  UNL1       -0.2852
     11 C         140.5099  144.5798  162.5656 C.3     1  UNL1        0.0976
     12 C         139.6520  144.7521  163.7840 C.3     1  UNL1        0.0259
     13 C         139.7847  145.7981  162.0759 C.3     1  UNL1        0.0259
     14 H         141.9686  141.2423  164.8070 H       1  UNL1        0.1513
     15 N         143.9696  142.6778  159.3620 N.pl3   1  UNL1       -0.1847
     16 H         144.8552  143.0278  159.1118 H       1  UNL1        0.2998
     17 C         143.8605  137.9445  161.5032 C.3     1  UNL1        0.0738
     18 C         143.6309  138.8424  160.3237 C.ar    1  UNL1        0.1430
     19 N         143.9150  140.3111  160.4326 N.ar    1  UNL1       -0.1937
     20 C         143.6855  141.2090  159.2530 C.ar    1  UNL1        0.2300
     21 C         143.1717  140.6380  157.9646 C.ar    1  UNL1        0.1032
     22 S         142.8514  141.2713  156.6432 S.2     1  UNL1       -0.0799
     23 C         142.3693  140.1939  155.7176 C.ar    1  UNL1        0.0372
     24 C         142.3917  138.8947  156.4670 C.ar    1  UNL1        0.0268
     25 C         142.8876  139.1691  157.8558 C.ar    1  UNL1        0.0940
     26 N         143.1172  138.2714  159.0353 N.ar    1  UNL1       -0.2299
     27 C         140.8480  141.2820  166.6614 C.3     1  UNL1        0.1115
     28 C         141.4406  141.9216  167.8819 C.ar    1  UNL1       -0.0031
     29 C         142.8583  141.6241  168.2711 C.ar    1  UNL1       -0.0026
     30 C         143.4510  142.2638  169.4916 C.ar    1  UNL1       -0.0003
     31 C         142.6259  143.2007  170.3229 C.ar    1  UNL1       -0.0000
     32 C         141.2081  143.4982  169.9337 C.ar    1  UNL1       -0.0003
     33 C         140.6154  142.8586  168.7133 C.ar    1  UNL1       -0.0026
     34 C         139.8320  140.1880  166.8063 C.3     1  UNL1        0.0966
     35 N         139.3490  139.4476  165.5944 N.3     1  UNL1       -0.2686
     36 C         138.1313  139.9248  164.8598 C.3     1  UNL1        0.0897
     37 C         140.0837  138.2301  165.1171 C.3     1  UNL1        0.0897
@<TRIPOS>BOND
     1    17    18    1
     2    18    19   ar
     3    19    20   ar
     4    20    15    1
     5    15     1    1
     6     1     2    2
     7     2     3    1
     8     3     4    2
     9     4     5    1
    10     5     6    1
    11     6     7    1
    12     7     8   am
    13     8     9    2
    14     8    10   am
    15    10    27    1
    16    27    34    1
    17    34    35    1
    18    35    36    1
    19    35    37    1
    20    27    28    1
    21    28    29   ar
    22    29    30   ar
    23    30    31   ar
    24    31    32   ar
    25    32    33   ar
    26     7    11    1
    27    11    12    1
    28    11    13    1
    29    20    21   ar
    30    21    22   ar
    31    22    23   ar
    32    23    24   ar
    33    24    25   ar
    34    25    26   ar
    35    26    18   ar
    36     5     1    1
    37    33    28   ar
    38    25    21   ar
    39    11     4    1
    40    15    16    1
    41    10    14    1
@<TRIPOS>MOLECULE
*****
 37 41 0 0 0
SMALL
GASTEIGER

@<TRIPOS>ATOM
      1 C         140.6643  145.3417  161.0080 C.2     1  UNL1        0.3360
      2 N         139.3653  146.0912  160.9788 N.2     1  UNL1        0.0754
      3 N         138.5156  145.5903  162.1089 N.2     1  UNL1       -0.0411
      4 C         139.2895  144.5313  162.8365 C.2     1  UNL1        0.1122
      5 C         140.6174  144.3776  162.1561 C.3     1  UNL1        0.1692
      6 C         141.3914  143.3185  162.8838 C.3     1  UNL1        0.1132
      7 N         140.5417  142.8176  164.0140 N.am    1  UNL1       -0.2617
      8 C         140.9239  141.7540  165.0001 C.2     1  UNL1        0.3044
      9 O         139.9650  141.3552  166.0824 O.2     1  UNL1       -0.2526
     10 N         142.2651  141.0891  164.9039 N.am    1  UNL1       -0.2852
     11 C         139.2427  143.5671  163.9848 C.3     1  UNL1        0.0976
     12 C         138.9097  142.7228  165.1790 C.3     1  UNL1        0.0259
     13 C         137.8741  144.1401  164.2052 C.3     1  UNL1        0.0259
     14 H         142.8945  141.3509  164.1935 H       1  UNL1        0.1513
     15 N         141.8091  145.5243  160.0562 N.pl3   1  UNL1       -0.1847
     16 H         142.4589  146.2495  160.2012 H       1  UNL1        0.2998
     17 C         143.9318  141.2971  157.9053 C.3     1  UNL1        0.0738
     18 C         143.0252  142.4883  157.8081 C.ar    1  UNL1        0.1430
     19 N         142.8704  143.4107  158.9807 N.ar    1  UNL1       -0.1937
     20 C         141.9639  144.6019  158.8835 C.ar    1  UNL1        0.2300
     21 C         141.2122  144.8705  157.6135 C.ar    1  UNL1        0.1032
     22 S         140.2538  145.9571  157.2252 S.2     1  UNL1       -0.0799
     23 C         139.8163  145.7062  155.8125 C.ar    1  UNL1        0.0372
     24 C         140.5043  144.4646  155.3278 C.ar    1  UNL1        0.0268
     25 C         141.3670  143.9480  156.4409 C.ar    1  UNL1        0.0940
     26 N         142.2735  142.7569  156.5381 N.ar    1  UNL1       -0.2299
     27 C         142.6473  140.0255  165.8901 C.3     1  UNL1        0.1115
     28 C         142.7500  140.3576  167.3493 C.ar    1  UNL1       -0.0031
     29 C         142.5031  139.2954  168.3793 C.ar    1  UNL1       -0.0026
     30 C         142.6058  139.6275  169.8385 C.ar    1  UNL1       -0.0003
     31 C         142.9552  141.0216  170.2676 C.ar    1  UNL1       -0.0000
     32 C         143.2021  142.0837  169.2376 C.ar    1  UNL1       -0.0003
     33 C         143.0995  141.7517  167.7784 C.ar    1  UNL1       -0.0026
     34 C         142.9269  138.6297  165.4171 C.3     1  UNL1        0.0966
     35 N         142.1232  138.0431  164.2947 N.3     1  UNL1       -0.2686
     36 C         142.6225  138.1413  162.8836 C.3     1  UNL1        0.0897
     37 C         140.8203  137.3582  164.5833 C.3     1  UNL1        0.0897
@<TRIPOS>BOND
     1    17    18    1
     2    18    19   ar
     3    19    20   ar
     4    20    15    1
     5    15     1    1
     6     1     2    2
     7     2     3    1
     8     3     4    2
     9     4     5    1
    10     5     6    1
    11     6     7    1
    12     7     8   am
    13     8     9    2
    14     8    10   am
    15    10    27    1
    16    27    34    1
    17    34    35    1
    18    35    36    1
    19    35    37    1
    20    27    28    1
    21    28    29   ar
    22    29    30   ar
    23    30    31   ar
    24    31    32   ar
    25    32    33   ar
    26     7    11    1
    27    11    12    1
    28    11    13    1
    29    20    21   ar
    30    21    22   ar
    31    22    23   ar
    32    23    24   ar
    33    24    25   ar
    34    25    26   ar
    35    26    18   ar
    36     5     1    1
    37    33    28   ar
    38    25    21   ar
    39    11     4    1
    40    15    16    1
    41    10    14    1
@<TRIPOS>MOLECULE
*****
 37 41 0 0 0
SMALL
GASTEIGER

@<TRIPOS>ATOM
      1 C         143.3171  143.0869  159.7511 C.2     1  UNL1        0.3360
      2 N         142.8824  144.2221  158.8724 N.2     1  UNL1        0.0754
      3 N         141.8063  144.9796  159.5922 N.2     1  UNL1       -0.0411
      4 C         141.5759  144.3125  160.9157 C.2     1  UNL1        0.1122
      5 C         142.5097  143.1427  161.0139 C.3     1  UNL1        0.1692
      6 C         142.2793  142.4755  162.3376 C.3     1  UNL1        0.1132
      7 N         141.2031  143.2330  163.0574 N.am    1  UNL1       -0.2617
      8 C         140.6575  142.9116  164.4171 C.2     1  UNL1        0.3044
      9 O         139.5760  143.7640  165.0119 O.2     1  UNL1       -0.2526
     10 N         141.1934  141.7378  165.1820 N.am    1  UNL1       -0.2852
     11 C         140.7683  144.3683  162.1787 C.3     1  UNL1        0.0976
     12 C         139.8289  144.6748  163.3071 C.3     1  UNL1        0.0259
     13 C         140.1372  145.5676  161.5359 C.3     1  UNL1        0.0259
     14 H         141.9032  141.1784  164.7916 H       1  UNL1        0.1513
     15 N         144.3738  142.0737  159.4244 N.pl3   1  UNL1       -0.1847
     16 H         145.1558  141.9705  160.0135 H       1  UNL1        0.2998
     17 C         141.9324  138.2974  156.8204 C.3     1  UNL1        0.0738
     18 C         143.0183  139.3294  156.8981 C.ar    1  UNL1        0.1430
     19 N         143.1531  140.1855  158.1223 N.ar    1  UNL1       -0.1937
     20 C         144.2390  141.2175  158.2000 C.ar    1  UNL1        0.2300
     21 C         145.1900  141.3933  157.0534 C.ar    1  UNL1        0.1032
     22 S         146.3500  142.3211  156.8448 S.2     1  UNL1       -0.0799
     23 C         146.9321  142.0383  155.4916 C.ar    1  UNL1        0.0372
     24 C         146.1318  140.9358  154.8639 C.ar    1  UNL1        0.0268
     25 C         145.0551  140.5372  155.8291 C.ar    1  UNL1        0.0940
     26 N         143.9692  139.5052  155.7515 N.ar    1  UNL1       -0.2299
     27 C         140.6477  141.4164  166.5418 C.3     1  UNL1        0.1115
     28 C         141.2844  142.0078  167.7645 C.ar    1  UNL1       -0.0031
     29 C         142.7188  141.7064  168.0834 C.ar    1  UNL1       -0.0026
     30 C         143.3555  142.2978  169.3060 C.ar    1  UNL1       -0.0003
     31 C         142.5578  143.1906  170.2097 C.ar    1  UNL1       -0.0000
     32 C         141.1235  143.4920  169.8907 C.ar    1  UNL1       -0.0003
     33 C         140.4868  142.9006  168.6682 C.ar    1  UNL1       -0.0026
     34 C         139.4654  140.5036  166.6790 C.3     1  UNL1        0.0966
     35 N         138.9749  139.7282  165.4923 N.3     1  UNL1       -0.2686
     36 C         138.0190  140.3618  164.5253 C.3     1  UNL1        0.0897
     37 C         139.4402  138.3192  165.2726 C.3     1  UNL1        0.0897
@<TRIPOS>BOND
     1    17    18    1
     2    18    19   ar
     3    19    20   ar
     4    20    15    1
     5    15     1    1
     6     1     2    2
     7     2     3    1
     8     3     4    2
     9     4     5    1
    10     5     6    1
    11     6     7    1
    12     7     8   am
    13     8     9    2
    14     8    10   am
    15    10    27    1
    16    27    34    1
    17    34    35    1
    18    35    36    1
    19    35    37    1
    20    27    28    1
    21    28    29   ar
    22    29    30   ar
    23    30    31   ar
    24    31    32   ar
    25    32    33   ar
    26     7    11    1
    27    11    12    1
    28    11    13    1
    29    20    21   ar
    30    21    22   ar
    31    22    23   ar
    32    23    24   ar
    33    24    25   ar
    34    25    26   ar
    35    26    18   ar
    36     5     1    1
    37    33    28   ar
    38    25    21   ar
    39    11     4    1
    40    15    16    1
    41    10    14    1
@<TRIPOS>MOLECULE
*****
 37 41 0 0 0
SMALL
GASTEIGER

@<TRIPOS>ATOM
      1 C         138.1746  140.6901  160.7861 C.2     1  UNL1        0.3360
      2 N         137.4486  139.3998  160.5453 N.2     1  UNL1        0.0754
      3 N         137.7471  138.4792  161.6913 N.2     1  UNL1       -0.0411
      4 C         138.6577  139.2004  162.6403 C.2     1  UNL1        0.1122
      5 C         138.9219  140.5669  162.0808 C.3     1  UNL1        0.1692
      6 C         139.8325  141.2883  163.0299 C.3     1  UNL1        0.1132
      7 N         140.1311  140.3676  164.1759 N.am    1  UNL1       -0.2617
      8 C         141.0026  140.6820  165.3554 C.2     1  UNL1        0.3044
      9 O         141.2096  139.6558  166.4297 O.2     1  UNL1       -0.2526
     10 N         141.6672  142.0226  165.4607 N.am    1  UNL1       -0.2852
     11 C         139.4050  139.0773  163.9351 C.3     1  UNL1        0.0976
     12 C         140.0277  138.6663  165.2364 C.3     1  UNL1        0.0259
     13 C         138.8092  137.7011  163.9664 C.3     1  UNL1        0.0259
     14 H         141.5313  142.6962  164.7556 H       1  UNL1        0.1513
     15 N         138.1566  141.8926  159.8896 N.pl3   1  UNL1       -0.1847
     16 H         137.4391  141.9995  159.2239 H       1  UNL1        0.2998
     17 C         139.8985  146.3574  161.8975 C.3     1  UNL1        0.0738
     18 C         140.1025  145.1645  161.0112 C.ar    1  UNL1        0.1430
     19 N         139.0276  144.1250  160.8935 N.ar    1  UNL1       -0.1937
     20 C         139.2316  142.9321  160.0073 C.ar    1  UNL1        0.2300
     21 C         140.5106  142.7787  159.2388 C.ar    1  UNL1        0.1032
     22 S         140.9927  141.7183  158.2938 S.2     1  UNL1       -0.0799
     23 C         142.3657  142.1024  157.8276 C.ar    1  UNL1        0.0372
     24 C         142.7321  143.4003  158.4843 C.ar    1  UNL1        0.0268
     25 C         141.5856  143.8183  159.3565 C.ar    1  UNL1        0.0940
     26 N         141.3815  145.0111  160.2428 N.ar    1  UNL1       -0.2299
     27 C         142.5388  142.3371  166.6403 C.3     1  UNL1        0.1115
     28 C         142.0000  142.1871  168.0321 C.ar    1  UNL1       -0.0031
     29 C         140.6878  142.8138  168.3999 C.ar    1  UNL1       -0.0026
     30 C         140.1490  142.6638  169.7918 C.ar    1  UNL1       -0.0003
     31 C         140.9223  141.8872  170.8157 C.ar    1  UNL1       -0.0000
     32 C         142.2345  141.2604  170.4479 C.ar    1  UNL1       -0.0003
     33 C         142.7734  141.4104  169.0562 C.ar    1  UNL1       -0.0026
     34 C         143.9492  142.8015  166.4281 C.3     1  UNL1        0.0966
     35 N         144.4168  143.1753  165.0527 N.3     1  UNL1       -0.2686
     36 C         144.0557  144.5118  164.4752 C.3     1  UNL1        0.0897
     37 C         145.2455  142.2127  164.2549 C.3     1  UNL1        0.0897
@<TRIPOS>BOND
     1    17    18    1
     2    18    19   ar
     3    19    20   ar
     4    20    15    1
     5    15     1    1
     6     1     2    2
     7     2     3    1
     8     3     4    2
     9     4     5    1
    10     5     6    1
    11     6     7    1
    12     7     8   am
    13     8     9    2
    14     8    10   am
    15    10    27    1
    16    27    34    1
    17    34    35    1
    18    35    36    1
    19    35    37    1
    20    27    28    1
    21    28    29   ar
    22    29    30   ar
    23    30    31   ar
    24    31    32   ar
    25    32    33   ar
    26     7    11    1
    27    11    12    1
    28    11    13    1
    29    20    21   ar
    30    21    22   ar
    31    22    23   ar
    32    23    24   ar
    33    24    25   ar
    34    25    26   ar
    35    26    18   ar
    36     5     1    1
    37    33    28   ar
    38    25    21   ar
    39    11     4    1
    40    15    16    1
    41    10    14    1
@<TRIPOS>MOLECULE
*****
 37 41 0 0 0
SMALL
GASTEIGER

@<TRIPOS>ATOM
      1 C         140.6731  143.9127  158.1874 C.2     1  UNL1        0.3360
      2 N         140.2396  145.3315  157.9655 N.2     1  UNL1        0.0754
      3 N         139.9819  145.9525  159.3063 N.2     1  UNL1       -0.0411
      4 C         140.2561  144.9176  160.3569 C.2     1  UNL1        0.1122
      5 C         140.6833  143.6569  159.6654 C.3     1  UNL1        0.1692
      6 C         140.9576  142.6220  160.7160 C.3     1  UNL1        0.1132
      7 N         140.6999  143.2430  162.0569 N.am    1  UNL1       -0.2617
      8 C         140.8494  142.5645  163.3862 C.2     1  UNL1        0.3044
      9 O         140.5542  143.3170  164.6498 O.2     1  UNL1       -0.2526
     10 N         141.2942  141.1334  163.4519 N.am    1  UNL1       -0.2852
     11 C         140.2663  144.6618  161.8350 C.3     1  UNL1        0.0976
     12 C         140.1822  144.7045  163.3320 C.3     1  UNL1        0.0259
     13 C         139.8152  146.0894  161.9261 C.3     1  UNL1        0.0259
     14 H         141.4880  140.6395  162.6226 H       1  UNL1        0.1513
     15 N         141.0332  142.9234  157.1190 N.pl3   1  UNL1       -0.1847
     16 H         140.4848  142.8576  156.3040 H       1  UNL1        0.2998
     17 C         146.1778  142.2151  156.9395 C.3     1  UNL1        0.0738
     18 C         144.8012  141.6803  157.2024 C.ar    1  UNL1        0.1430
     19 N         143.6056  142.5692  157.0292 N.ar    1  UNL1       -0.1937
     20 C         142.2289  142.0344  157.2922 C.ar    1  UNL1        0.2300
     21 C         142.0482  140.6107  157.7283 C.ar    1  UNL1        0.1032
     22 S         140.8235  139.8100  158.0586 S.2     1  UNL1       -0.0799
     23 C         141.2624  138.4261  158.4360 C.ar    1  UNL1        0.0372
     24 C         142.7583  138.3716  158.3389 C.ar    1  UNL1        0.0268
     25 C         143.2439  139.7217  157.9015 C.ar    1  UNL1        0.0940
     26 N         144.6204  140.2565  157.6386 N.ar    1  UNL1       -0.2299
     27 C         141.4438  140.4548  164.7813 C.3     1  UNL1        0.1115
     28 C         140.3140  139.6410  165.3393 C.ar    1  UNL1       -0.0031
     29 C         139.5936  140.1032  166.5710 C.ar    1  UNL1       -0.0026
     30 C         138.4638  139.2894  167.1289 C.ar    1  UNL1       -0.0003
     31 C         138.0546  138.0133  166.4552 C.ar    1  UNL1       -0.0000
     32 C         138.7751  137.5510  165.2235 C.ar    1  UNL1       -0.0003
     33 C         139.9048  138.3648  164.6655 C.ar    1  UNL1       -0.0026
     34 C         142.7230  140.5902  165.5527 C.3     1  UNL1        0.0966
     35 N         144.0057  140.8838  164.8326 N.3     1  UNL1       -0.2686
     36 C         144.4820  142.2997  164.6960 C.3     1  UNL1        0.0897
     37 C         144.8120  139.7617  164.2489 C.3     1  UNL1        0.0897
@<TRIPOS>BOND
     1    17    18    1
     2    18    19   ar
     3    19    20   ar
     4    20    15    1
     5    15     1    1
     6     1     2    2
     7     2     3    1
     8     3     4    2
     9     4     5    1
    10     5     6    1
    11     6     7    1
    12     7     8   am
    13     8     9    2
    14     8    10   am
    15    10    27    1
    16    27    34    1
    17    34    35    1
    18    35    36    1
    19    35    37    1
    20    27    28    1
    21    28    29   ar
    22    29    30   ar
    23    30    31   ar
    24    31    32   ar
    25    32    33   ar
    26     7    11    1
    27    11    12    1
    28    11    13    1
    29    20    21   ar
    30    21    22   ar
    31    22    23   ar
    32    23    24   ar
    33    24    25   ar
    34    25    26   ar
    35    26    18   ar
    36     5     1    1
    37    33    28   ar
    38    25    21   ar
    39    11     4    1
    40    15    16    1
    41    10    14    1
@<TRIPOS>MOLECULE
*****
 37 41 0 0 0
SMALL
GASTEIGER

@<TRIPOS>ATOM
      1 C         142.1112  137.2406  157.1001 C.2     1  UNL1        0.3360
      2 N         140.7300  137.1155  156.5287 N.2     1  UNL1        0.0754
      3 N         139.7839  137.8392  157.4404 N.2     1  UNL1       -0.0411
      4 C         140.5804  138.4116  158.5753 C.2     1  UNL1        0.1122
      5 C         142.0188  138.0416  158.3649 C.3     1  UNL1        0.1692
      6 C         142.8154  138.6140  159.4998 C.3     1  UNL1        0.1132
      7 N         141.8693  139.3377  160.4116 N.am    1  UNL1       -0.2617
      8 C         142.2395  140.0597  161.6731 C.2     1  UNL1        0.3044
      9 O         141.1790  140.7411  162.4860 O.2     1  UNL1       -0.2526
     10 N         143.6703  140.1003  162.1217 N.am    1  UNL1       -0.2852
     11 C         140.4881  139.2126  159.8402 C.3     1  UNL1        0.0976
     12 C         140.0895  140.0229  161.0379 C.3     1  UNL1        0.0259
     13 C         139.0235  139.2569  159.5192 C.3     1  UNL1        0.0259
     14 H         144.3664  139.6531  161.5882 H       1  UNL1        0.1513
     15 N         143.3648  136.6656  156.5103 N.pl3   1  UNL1       -0.1847
     16 H         144.1303  137.2525  156.3134 H       1  UNL1        0.2998
     17 C         144.8699  131.8879  157.8916 C.3     1  UNL1        0.0738
     18 C         144.2046  132.8076  156.9111 C.ar    1  UNL1        0.1430
     19 N         144.1173  134.2767  157.2009 N.ar    1  UNL1       -0.1937
     20 C         143.4520  135.1965  156.2203 C.ar    1  UNL1        0.2300
     21 C         142.8739  134.6470  154.9500 C.ar    1  UNL1        0.1032
     22 S         142.1641  135.3043  153.8036 S.2     1  UNL1       -0.0799
     23 C         141.8127  134.2414  152.8053 C.ar    1  UNL1        0.0372
     24 C         142.3053  132.9272  153.3346 C.ar    1  UNL1        0.0268
     25 C         142.9611  133.1779  154.6601 C.ar    1  UNL1        0.0940
     26 N         143.6265  132.2582  155.6407 N.ar    1  UNL1       -0.2299
     27 C         144.0405  140.8223  163.3834 C.3     1  UNL1        0.1115
     28 C         143.6742  140.2396  164.7161 C.ar    1  UNL1       -0.0031
     29 C         142.8983  141.0583  165.7048 C.ar    1  UNL1       -0.0026
     30 C         142.5320  140.4755  167.0376 C.ar    1  UNL1       -0.0003
     31 C         142.9416  139.0742  167.3816 C.ar    1  UNL1       -0.0000
     32 C         143.7176  138.2556  166.3928 C.ar    1  UNL1       -0.0003
     33 C         144.0839  138.8382  165.0601 C.ar    1  UNL1       -0.0026
     34 C         144.7770  142.1271  163.3122 C.3     1  UNL1        0.0966
     35 N         144.0142  143.4138  163.2000 N.3     1  UNL1       -0.2686
     36 C         143.2654  143.7344  161.9404 C.3     1  UNL1        0.0897
     37 C         144.0002  144.3799  164.3474 C.3     1  UNL1        0.0897
@<TRIPOS>BOND
     1    17    18    1
     2    18    19   ar
     3    19    20   ar
     4    20    15    1
     5    15     1    1
     6     1     2    2
     7     2     3    1
     8     3     4    2
     9     4     5    1
    10     5     6    1
    11     6     7    1
    12     7     8   am
    13     8     9    2
    14     8    10   am
    15    10    27    1
    16    27    34    1
    17    34    35    1
    18    35    36    1
    19    35    37    1
    20    27    28    1
    21    28    29   ar
    22    29    30   ar
    23    30    31   ar
    24    31    32   ar
    25    32    33   ar
    26     7    11    1
    27    11    12    1
    28    11    13    1
    29    20    21   ar
    30    21    22   ar
    31    22    23   ar
    32    23    24   ar
    33    24    25   ar
    34    25    26   ar
    35    26    18   ar
    36     5     1    1
    37    33    28   ar
    38    25    21   ar
    39    11     4    1
    40    15    16    1
    41    10    14    1
@<TRIPOS>MOLECULE
*****
 37 41 0 0 0
SMALL
GASTEIGER

@<TRIPOS>ATOM
      1 C         140.6000  143.8845  158.3884 C.2     1  UNL1        0.3360
      2 N         140.2011  145.3148  158.1759 N.2     1  UNL1        0.0754
      3 N         139.9516  145.9310  159.5205 N.2     1  UNL1       -0.0411
      4 C         140.1962  144.8817  160.5640 C.2     1  UNL1        0.1122
      5 C         140.5970  143.6168  159.8643 C.3     1  UNL1        0.1692
      6 C         140.8417  142.5674  160.9078 C.3     1  UNL1        0.1132
      7 N         140.5921  143.1837  162.2525 N.am    1  UNL1       -0.2617
      8 C         140.7192  142.4913  163.5769 C.2     1  UNL1        0.3044
      9 O         140.4356  143.2404  164.8451 O.2     1  UNL1       -0.2526
     10 N         141.1298  141.0496  163.6332 N.am    1  UNL1       -0.2852
     11 C         140.1932  144.6139  162.0400 C.3     1  UNL1        0.0976
     12 C         140.1029  144.6467  163.5369 C.3     1  UNL1        0.0259
     13 C         139.7754  146.0510  162.1404 C.3     1  UNL1        0.0259
     14 H         141.3159  140.5579  162.8009 H       1  UNL1        0.1513
     15 N         140.9419  142.8955  157.3137 N.pl3   1  UNL1       -0.1847
     16 H         141.7839  142.9857  156.8116 H       1  UNL1        0.2998
     17 C         136.4696  141.1963  155.2859 C.3     1  UNL1        0.0738
     18 C         137.7648  140.9195  155.9902 C.ar    1  UNL1        0.1430
     19 N         138.7057  142.0458  156.2998 N.ar    1  UNL1       -0.1937
     20 C         140.0009  141.7691  157.0042 C.ar    1  UNL1        0.2300
     21 C         140.3551  140.3660  157.3989 C.ar    1  UNL1        0.1032
     22 S         141.5514  139.7917  158.0980 S.2     1  UNL1       -0.0799
     23 C         141.3498  138.3103  158.2205 C.ar    1  UNL1        0.0372
     24 C         140.0289  137.9691  157.5970 C.ar    1  UNL1        0.0268
     25 C         139.4141  139.2396  157.0892 C.ar    1  UNL1        0.0940
     26 N         138.1189  139.5164  156.3849 N.ar    1  UNL1       -0.2299
     27 C         141.2569  140.3572  164.9578 C.3     1  UNL1        0.1115
     28 C         140.1351  139.5018  165.4676 C.ar    1  UNL1       -0.0031
     29 C         139.8605  138.1697  164.8351 C.ar    1  UNL1       -0.0026
     30 C         138.7387  137.3143  165.3450 C.ar    1  UNL1       -0.0003
     31 C         137.8915  137.7911  166.4872 C.ar    1  UNL1       -0.0000
     32 C         138.1660  139.1232  167.1197 C.ar    1  UNL1       -0.0003
     33 C         139.2878  139.9786  166.6099 C.ar    1  UNL1       -0.0026
     34 C         142.5057  140.5200  165.7725 C.3     1  UNL1        0.0966
     35 N         142.9155  139.4490  166.7394 N.3     1  UNL1       -0.2686
     36 C         143.6091  138.2152  166.2424 C.3     1  UNL1        0.0897
     37 C         142.6316  139.6115  168.2033 C.3     1  UNL1        0.0897
@<TRIPOS>BOND
     1    17    18    1
     2    18    19   ar
     3    19    20   ar
     4    20    15    1
     5    15     1    1
     6     1     2    2
     7     2     3    1
     8     3     4    2
     9     4     5    1
    10     5     6    1
    11     6     7    1
    12     7     8   am
    13     8     9    2
    14     8    10   am
    15    10    27    1
    16    27    34    1
    17    34    35    1
    18    35    36    1
    19    35    37    1
    20    27    28    1
    21    28    29   ar
    22    29    30   ar
    23    30    31   ar
    24    31    32   ar
    25    32    33   ar
    26     7    11    1
    27    11    12    1
    28    11    13    1
    29    20    21   ar
    30    21    22   ar
    31    22    23   ar
    32    23    24   ar
    33    24    25   ar
    34    25    26   ar
    35    26    18   ar
    36     5     1    1
    37    33    28   ar
    38    25    21   ar
    39    11     4    1
    40    15    16    1
    41    10    14    1
