@<TRIPOS>MOLECULE
*****
 43 46 0 0 0
SMALL
GASTEIGER

@<TRIPOS>ATOM
      1 C         141.8222  140.9936  162.3973 C.3     1  UNL1        0.0798
      2 C         141.6057  140.7525  163.8620 C.ar    1  UNL1        0.0374
      3 C         141.3050  141.9039  164.7752 C.ar    1  UNL1        0.0023
      4 C         141.0885  141.6629  166.2397 C.ar    1  UNL1        0.0183
      5 C         140.7878  142.8142  167.1529 C.ar    1  UNL1        0.0118
      6 C         140.5713  142.5731  168.6175 C.ar    1  UNL1        0.0685
      7 C         140.6556  141.1807  169.1689 C.ar    1  UNL1        0.0118
      8 C         140.9563  140.0293  168.2557 C.ar    1  UNL1        0.0199
      9 C         141.1728  140.2704  166.7912 C.ar    1  UNL1        0.0844
     10 N         141.4736  139.1190  165.8780 N.ar    1  UNL1       -0.2119
     11 C         141.6900  139.3601  164.4133 C.ar    1  UNL1        0.2211
     12 C         140.2705  143.7245  169.5307 C.1     1  UNL1        0.1004
     13 N         139.9698  144.8758  170.4439 N.1     1  UNL1       -0.1908
     14 O         141.9908  138.2088  163.5002 O.3     1  UNL1       -0.4563
     15 C         140.9616  137.1408  163.2758 C.3     1  UNL1        0.2542
     16 C         141.0170  140.2340  161.3851 C.ar    1  UNL1        0.0115
     17 C         141.7103  139.4454  160.3141 C.ar    1  UNL1       -0.0017
     18 C         140.9051  138.6857  159.3018 C.ar    1  UNL1       -0.0005
     19 C         139.4065  138.7148  159.3607 C.ar    1  UNL1       -0.0021
     20 C         138.7132  139.5035  160.4319 C.ar    1  UNL1        0.0053
     21 C         137.2146  139.5326  160.4908 C.3     1  UNL1        0.0334
     22 C         139.5184  140.2631  161.4440 C.ar    1  UNL1        0.1325
     23 F         138.8251  141.0518  162.5151 F       1  UNL1       -0.2048
     24 C         142.8439  141.9943  161.9450 C.3     1  UNL1        0.1162
     25 O         143.9247  141.1879  162.6020 O.3     1  UNL1       -0.3820
     26 H         144.7806  141.6242  162.4679 H       1  UNL1        0.2107
     27 C         139.6633  144.3197  161.4696 C.ar    1  UNL1        0.2271
     28 C         140.7440  143.5133  162.1266 C.ar    1  UNL1        0.0559
     29 C         141.7632  142.8008  161.2879 C.ar    1  UNL1        0.0117
     30 C         141.7016  142.8946  159.7921 C.ar    1  UNL1        0.0559
     31 C         140.6209  143.7010  159.1351 C.ar    1  UNL1        0.2271
     32 N         139.6017  144.4136  159.9738 N.ar    1  UNL1       -0.1767
     33 O         138.6441  145.0323  162.3084 O.3     1  UNL1       -0.4602
     34 C         138.0802  144.0960  164.6653 C.3     1  UNL1        0.0512
     35 C         137.7383  144.2506  163.2130 C.3     1  UNL1        0.2072
     36 O         140.5594  143.7948  157.6392 O.3     1  UNL1       -0.4602
     37 C         140.8817  145.0903  156.9552 C.3     1  UNL1        0.2072
     38 C         142.0607  145.9021  157.4033 C.3     1  UNL1        0.0512
     39 C         143.8657  142.9951  161.4926 C.3     1  UNL1        0.0491
     40 C         144.7051  143.7190  162.5031 C.3     1  UNL1        0.0750
     41 N         144.1157  144.1101  163.8259 N.3     1  UNL1       -0.2702
     42 C         144.5384  143.3965  165.0757 C.3     1  UNL1        0.0897
     43 C         143.1035  145.2146  163.8988 C.3     1  UNL1        0.0897
@<TRIPOS>BOND
     1    34    35    1
     2    35    33    1
     3    33    27    1
     4    27    28   ar
     5    28    29   ar
     6    29    24    1
     7    24    25    1
     8    24    39    1
     9    39    40    1
    10    40    41    1
    11    41    42    1
    12    41    43    1
    13    24     1    1
    14     1     2    1
    15     2     3   ar
    16     3     4   ar
    17     4     5   ar
    18     5     6   ar
    19     6    12    1
    20    12    13    3
    21     6     7   ar
    22     7     8   ar
    23     8     9   ar
    24     9    10   ar
    25    10    11   ar
    26    11    14    1
    27    14    15    1
    28     1    16    1
    29    16    17   ar
    30    17    18   ar
    31    18    19   ar
    32    19    20   ar
    33    20    21    1
    34    20    22   ar
    35    22    23    1
    36    29    30   ar
    37    30    31   ar
    38    31    36    1
    39    36    37    1
    40    37    38    1
    41    31    32   ar
    42    32    27   ar
    43    11     2   ar
    44    22    16   ar
    45     9     4   ar
    46    25    26    1
@<TRIPOS>MOLECULE
*****
 43 46 0 0 0
SMALL
GASTEIGER

@<TRIPOS>ATOM
      1 C         141.7929  140.9243  162.6542 C.3     1  UNL1        0.0798
      2 C         141.6141  140.7238  164.1300 C.ar    1  UNL1        0.0374
      3 C         141.2763  141.8907  165.0099 C.ar    1  UNL1        0.0023
      4 C         141.0974  141.6902  166.4856 C.ar    1  UNL1        0.0183
      5 C         140.7596  142.8571  167.3655 C.ar    1  UNL1        0.0118
      6 C         140.5808  142.6566  168.8413 C.ar    1  UNL1        0.0685
      7 C         140.7398  141.2893  169.4371 C.ar    1  UNL1        0.0118
      8 C         141.0776  140.1224  168.5572 C.ar    1  UNL1        0.0199
      9 C         141.2564  140.3228  167.0815 C.ar    1  UNL1        0.0844
     10 N         141.5942  139.1559  166.2016 N.ar    1  UNL1       -0.2119
     11 C         141.7731  139.3564  164.7258 C.ar    1  UNL1        0.2211
     12 C         140.2429  143.8235  169.7212 C.1     1  UNL1        0.1004
     13 N         139.9051  144.9904  170.6011 N.1     1  UNL1       -0.1908
     14 O         142.1109  138.1895  163.8459 O.3     1  UNL1       -0.4563
     15 C         141.1146  137.0856  163.6489 C.3     1  UNL1        0.2542
     16 C         141.0035  140.0967  161.6838 C.ar    1  UNL1        0.0115
     17 C         141.7100  139.3166  160.6150 C.ar    1  UNL1       -0.0017
     18 C         140.9205  138.4890  159.6445 C.ar    1  UNL1       -0.0005
     19 C         139.4245  138.4415  159.7428 C.ar    1  UNL1       -0.0021
     20 C         138.7180  139.2216  160.8117 C.ar    1  UNL1        0.0053
     21 C         137.2219  139.1740  160.9100 C.3     1  UNL1        0.0334
     22 C         139.5074  140.0491  161.7821 C.ar    1  UNL1        0.1325
     23 F         138.8009  140.8292  162.8508 F       1  UNL1       -0.2048
     24 C         142.7613  141.9524  162.1489 C.3     1  UNL1        0.1162
     25 O         143.8886  141.2148  162.8085 O.3     1  UNL1       -0.3820
     26 H         144.7220  141.6826  162.6427 H       1  UNL1        0.2107
     27 C         140.3925  143.4409  159.3341 C.ar    1  UNL1        0.2271
     28 C         141.5198  142.7033  159.9937 C.ar    1  UNL1        0.0559
     29 C         141.6340  142.6900  161.4893 C.ar    1  UNL1        0.0117
     30 C         140.6208  143.4143  162.3252 C.ar    1  UNL1        0.0559
     31 C         139.4935  144.1519  161.6656 C.ar    1  UNL1        0.2271
     32 N         139.3794  144.1652  160.1701 N.ar    1  UNL1       -0.1767
     33 O         140.2784  143.4541  157.8385 O.3     1  UNL1       -0.4602
     34 C         138.5459  141.5195  157.7624 C.3     1  UNL1        0.0512
     35 C         139.1241  142.7696  157.1683 C.3     1  UNL1        0.2072
     36 O         138.4804  144.8763  162.5016 O.3     1  UNL1       -0.4602
     37 C         138.0073  144.2773  163.7929 C.3     1  UNL1        0.2072
     38 C         138.5702  144.7631  165.0957 C.3     1  UNL1        0.0512
     39 C         143.7296  142.9805  161.6436 C.3     1  UNL1        0.0491
     40 C         144.6306  143.6982  162.6043 C.3     1  UNL1        0.0750
     41 N         144.0879  144.1997  163.9097 N.3     1  UNL1       -0.2702
     42 C         144.5461  143.5840  165.1985 C.3     1  UNL1        0.0897
     43 C         143.0870  145.3167  163.9263 C.3     1  UNL1        0.0897
@<TRIPOS>BOND
     1    34    35    1
     2    35    33    1
     3    33    27    1
     4    27    28   ar
     5    28    29   ar
     6    29    24    1
     7    24    25    1
     8    24    39    1
     9    39    40    1
    10    40    41    1
    11    41    42    1
    12    41    43    1
    13    24     1    1
    14     1     2    1
    15     2     3   ar
    16     3     4   ar
    17     4     5   ar
    18     5     6   ar
    19     6    12    1
    20    12    13    3
    21     6     7   ar
    22     7     8   ar
    23     8     9   ar
    24     9    10   ar
    25    10    11   ar
    26    11    14    1
    27    14    15    1
    28     1    16    1
    29    16    17   ar
    30    17    18   ar
    31    18    19   ar
    32    19    20   ar
    33    20    21    1
    34    20    22   ar
    35    22    23    1
    36    29    30   ar
    37    30    31   ar
    38    31    36    1
    39    36    37    1
    40    37    38    1
    41    31    32   ar
    42    32    27   ar
    43    11     2   ar
    44    22    16   ar
    45     9     4   ar
    46    25    26    1
@<TRIPOS>MOLECULE
*****
 43 46 0 0 0
SMALL
GASTEIGER

@<TRIPOS>ATOM
      1 C         141.4765  142.0632  162.6227 C.3     1  UNL1        0.0798
      2 C         141.9157  142.1032  164.0565 C.ar    1  UNL1        0.0374
      3 C         141.0828  141.4425  165.1147 C.ar    1  UNL1        0.0023
      4 C         141.5218  141.4824  166.5484 C.ar    1  UNL1        0.0183
      5 C         140.6889  140.8217  167.6066 C.ar    1  UNL1        0.0118
      6 C         141.1281  140.8617  169.0403 C.ar    1  UNL1        0.0685
      7 C         142.4000  141.5623  169.4159 C.ar    1  UNL1        0.0118
      8 C         143.2330  142.2230  168.3577 C.ar    1  UNL1        0.0199
      9 C         142.7939  142.1831  166.9240 C.ar    1  UNL1        0.0844
     10 N         143.6268  142.8438  165.8658 N.ar    1  UNL1       -0.2119
     11 C         143.1877  142.8038  164.4321 C.ar    1  UNL1        0.2211
     12 C         140.2951  140.2009  170.0985 C.1     1  UNL1        0.1004
     13 N         139.4622  139.5402  171.1567 N.1     1  UNL1       -0.1908
     14 O         144.0206  143.4645  163.3739 O.3     1  UNL1       -0.4563
     15 C         143.9391  144.9489  163.1734 C.3     1  UNL1        0.2542
     16 C         142.3008  141.3306  161.6060 C.ar    1  UNL1        0.0115
     17 C         142.7277  142.0238  160.3462 C.ar    1  UNL1       -0.0017
     18 C         143.5521  141.2912  159.3294 C.ar    1  UNL1       -0.0005
     19 C         143.9495  139.8654  159.5725 C.ar    1  UNL1       -0.0021
     20 C         143.5226  139.1722  160.8324 C.ar    1  UNL1        0.0053
     21 C         143.9201  137.7464  161.0755 C.3     1  UNL1        0.0334
     22 C         142.6983  139.9048  161.8491 C.ar    1  UNL1        0.1325
     23 F         142.2715  139.2116  163.1090 F       1  UNL1       -0.2048
     24 C         140.2131  142.7559  162.2058 C.3     1  UNL1        0.1162
     25 O         140.8024  144.0745  162.6104 O.3     1  UNL1       -0.3820
     26 H         140.1591  144.7811  162.4434 H       1  UNL1        0.2107
     27 C         138.6914  139.8597  159.9593 C.ar    1  UNL1        0.2271
     28 C         139.2808  141.1783  160.3640 C.ar    1  UNL1        0.0559
     29 C         139.6237  141.4372  161.8011 C.ar    1  UNL1        0.0117
     30 C         139.3772  140.3774  162.8336 C.ar    1  UNL1        0.0559
     31 C         138.7879  139.0587  162.4289 C.ar    1  UNL1        0.2271
     32 N         138.4449  138.7999  160.9918 N.ar    1  UNL1       -0.1767
     33 O         138.3485  139.6008  158.5221 O.3     1  UNL1       -0.4602
     34 C         137.2264  141.3715  156.9873 C.3     1  UNL1        0.0512
     35 C         138.4629  140.7049  157.5132 C.3     1  UNL1        0.2072
     36 O         138.5414  137.9989  163.4615 O.3     1  UNL1       -0.4602
     37 C         139.1353  138.1347  164.8322 C.3     1  UNL1        0.2072
     38 C         138.2821  138.5942  165.9771 C.3     1  UNL1        0.0512
     39 C         138.9496  143.4485  161.7888 C.3     1  UNL1        0.0491
     40 C         138.2146  144.3193  162.7643 C.3     1  UNL1        0.0750
     41 N         138.1718  143.9479  164.2169 N.3     1  UNL1       -0.2702
     42 C         138.7387  144.8799  165.2464 C.3     1  UNL1        0.0897
     43 C         137.5621  142.6444  164.6401 C.3     1  UNL1        0.0897
@<TRIPOS>BOND
     1    34    35    1
     2    35    33    1
     3    33    27    1
     4    27    28   ar
     5    28    29   ar
     6    29    24    1
     7    24    25    1
     8    24    39    1
     9    39    40    1
    10    40    41    1
    11    41    42    1
    12    41    43    1
    13    24     1    1
    14     1     2    1
    15     2     3   ar
    16     3     4   ar
    17     4     5   ar
    18     5     6   ar
    19     6    12    1
    20    12    13    3
    21     6     7   ar
    22     7     8   ar
    23     8     9   ar
    24     9    10   ar
    25    10    11   ar
    26    11    14    1
    27    14    15    1
    28     1    16    1
    29    16    17   ar
    30    17    18   ar
    31    18    19   ar
    32    19    20   ar
    33    20    21    1
    34    20    22   ar
    35    22    23    1
    36    29    30   ar
    37    30    31   ar
    38    31    36    1
    39    36    37    1
    40    37    38    1
    41    31    32   ar
    42    32    27   ar
    43    11     2   ar
    44    22    16   ar
    45     9     4   ar
    46    25    26    1
@<TRIPOS>MOLECULE
*****
 43 46 0 0 0
SMALL
GASTEIGER

@<TRIPOS>ATOM
      1 C         141.4477  142.1289  162.6050 C.3     1  UNL1        0.0798
      2 C         141.8997  142.1512  164.0351 C.ar    1  UNL1        0.0374
      3 C         141.0688  141.4900  165.0946 C.ar    1  UNL1        0.0023
      4 C         141.5208  141.5122  166.5247 C.ar    1  UNL1        0.0183
      5 C         140.6899  140.8511  167.5842 C.ar    1  UNL1        0.0118
      6 C         141.1419  140.8733  169.0144 C.ar    1  UNL1        0.0685
      7 C         142.4247  141.5567  169.3850 C.ar    1  UNL1        0.0118
      8 C         143.2556  142.2178  168.3255 C.ar    1  UNL1        0.0199
      9 C         142.8037  142.1956  166.8954 C.ar    1  UNL1        0.0844
     10 N         143.6345  142.8567  165.8359 N.ar    1  UNL1       -0.2119
     11 C         143.1825  142.8345  164.4057 C.ar    1  UNL1        0.2211
     12 C         140.3110  140.2122  170.0739 C.1     1  UNL1        0.1004
     13 N         139.4802  139.5510  171.1334 N.1     1  UNL1       -0.1908
     14 O         144.0134  143.4957  163.3462 O.3     1  UNL1       -0.4563
     15 C         143.9826  144.9873  163.1911 C.3     1  UNL1        0.2542
     16 C         142.2457  141.3820  161.5777 C.ar    1  UNL1        0.0115
     17 C         142.6095  142.0457  160.2827 C.ar    1  UNL1       -0.0017
     18 C         143.4075  141.2987  159.2554 C.ar    1  UNL1       -0.0005
     19 C         143.8417  139.8881  159.5232 C.ar    1  UNL1       -0.0021
     20 C         143.4779  139.2245  160.8183 C.ar    1  UNL1        0.0053
     21 C         143.9121  137.8139  161.0861 C.3     1  UNL1        0.0334
     22 C         142.6799  139.9714  161.8455 C.ar    1  UNL1        0.1325
     23 F         142.3161  139.3078  163.1406 F       1  UNL1       -0.2048
     24 C         140.1977  142.8537  162.2022 C.3     1  UNL1        0.1162
     25 O         140.8261  144.1571  162.5973 O.3     1  UNL1       -0.3820
     26 H         140.1994  144.8799  162.4369 H       1  UNL1        0.2107
     27 C         138.7815  139.1531  162.4259 C.ar    1  UNL1        0.2271
     28 C         139.4098  140.4565  162.8210 C.ar    1  UNL1        0.0559
     29 C         139.5693  141.5502  161.8070 C.ar    1  UNL1        0.0117
     30 C         139.1005  141.3404  160.3977 C.ar    1  UNL1        0.0559
     31 C         138.4721  140.0370  160.0025 C.ar    1  UNL1        0.2271
     32 N         138.3126  138.9433  161.0166 N.ar    1  UNL1       -0.1767
     33 O         138.6220  138.0594  163.4400 O.3     1  UNL1       -0.4602
     34 C         138.2242  138.7354  165.9169 C.3     1  UNL1        0.0512
     35 C         139.1413  138.2482  164.8345 C.3     1  UNL1        0.2072
     36 O         138.0032  139.8272  158.5931 O.3     1  UNL1       -0.4602
     37 C         138.0683  140.9543  157.6055 C.3     1  UNL1        0.2072
     38 C         136.9454  141.1657  156.6337 C.3     1  UNL1        0.0512
     39 C         138.9477  143.5784  161.7993 C.3     1  UNL1        0.0491
     40 C         138.1909  144.3874  162.8106 C.3     1  UNL1        0.0750
     41 N         138.1829  143.9698  164.2512 N.3     1  UNL1       -0.2702
     42 C         138.7783  144.8670  165.2955 C.3     1  UNL1        0.0897
     43 C         137.5796  142.6550  164.6477 C.3     1  UNL1        0.0897
@<TRIPOS>BOND
     1    34    35    1
     2    35    33    1
     3    33    27    1
     4    27    28   ar
     5    28    29   ar
     6    29    24    1
     7    24    25    1
     8    24    39    1
     9    39    40    1
    10    40    41    1
    11    41    42    1
    12    41    43    1
    13    24     1    1
    14     1     2    1
    15     2     3   ar
    16     3     4   ar
    17     4     5   ar
    18     5     6   ar
    19     6    12    1
    20    12    13    3
    21     6     7   ar
    22     7     8   ar
    23     8     9   ar
    24     9    10   ar
    25    10    11   ar
    26    11    14    1
    27    14    15    1
    28     1    16    1
    29    16    17   ar
    30    17    18   ar
    31    18    19   ar
    32    19    20   ar
    33    20    21    1
    34    20    22   ar
    35    22    23    1
    36    29    30   ar
    37    30    31   ar
    38    31    36    1
    39    36    37    1
    40    37    38    1
    41    31    32   ar
    42    32    27   ar
    43    11     2   ar
    44    22    16   ar
    45     9     4   ar
    46    25    26    1
@<TRIPOS>MOLECULE
*****
 43 46 0 0 0
SMALL
GASTEIGER

@<TRIPOS>ATOM
      1 C         140.7190  140.6879  162.0915 C.3     1  UNL1        0.0798
      2 C         140.1769  140.3016  163.4358 C.ar    1  UNL1        0.0374
      3 C         140.5592  141.0899  164.6533 C.ar    1  UNL1        0.0023
      4 C         140.0171  140.7037  165.9975 C.ar    1  UNL1        0.0183
      5 C         140.3994  141.4919  167.2151 C.ar    1  UNL1        0.0118
      6 C         139.8572  141.1056  168.5594 C.ar    1  UNL1        0.0685
      7 C         138.9329  139.9312  168.6860 C.ar    1  UNL1        0.0118
      8 C         138.5506  139.1429  167.4684 C.ar    1  UNL1        0.0199
      9 C         139.0927  139.5291  166.1242 C.ar    1  UNL1        0.0844
     10 N         138.7104  138.7408  164.9066 N.ar    1  UNL1       -0.2119
     11 C         139.2525  139.1271  163.5624 C.ar    1  UNL1        0.2211
     12 C         140.2395  141.8939  169.7770 C.1     1  UNL1        0.1004
     13 N         140.6218  142.6822  170.9945 N.1     1  UNL1       -0.1908
     14 O         138.8702  138.3389  162.3448 O.3     1  UNL1       -0.4563
     15 C         137.6064  138.6659  161.6059 C.3     1  UNL1        0.2542
     16 C         141.4453  139.6754  161.2565 C.ar    1  UNL1        0.0115
     17 C         142.6459  138.9679  161.8115 C.ar    1  UNL1       -0.0017
     18 C         143.3723  137.9553  160.9765 C.ar    1  UNL1       -0.0005
     19 C         142.8979  137.6502  159.5866 C.ar    1  UNL1       -0.0021
     20 C         141.6973  138.3577  159.0316 C.ar    1  UNL1        0.0053
     21 C         141.2229  138.0526  157.6417 C.3     1  UNL1        0.0334
     22 C         140.9710  139.3702  159.8666 C.ar    1  UNL1        0.1325
     23 F         139.7704  140.0776  159.3116 F       1  UNL1       -0.2048
     24 C         140.5348  142.0868  161.5823 C.3     1  UNL1        0.1162
     25 O         139.0465  141.9026  161.6148 O.3     1  UNL1       -0.3820
     26 H         138.6134  142.7158  161.3113 H       1  UNL1        0.2107
     27 C         144.2845  142.5423  162.7998 C.ar    1  UNL1        0.2271
     28 C         142.7962  142.3582  162.8322 C.ar    1  UNL1        0.0559
     29 C         142.0231  142.2709  161.5498 C.ar    1  UNL1        0.0117
     30 C         142.7383  142.3678  160.2349 C.ar    1  UNL1        0.0559
     31 C         144.2266  142.5520  160.2024 C.ar    1  UNL1        0.2271
     32 N         144.9997  142.6392  161.4849 N.ar    1  UNL1       -0.1767
     33 O         145.0576  142.6296  164.0823 O.3     1  UNL1       -0.4602
     34 C         143.6787  142.6964  166.2833 C.3     1  UNL1        0.0512
     35 C         144.5001  143.3988  165.2431 C.3     1  UNL1        0.2072
     36 O         144.9418  142.6489  158.8874 O.3     1  UNL1       -0.4602
     37 C         144.3518  142.0122  157.6641 C.3     1  UNL1        0.2072
     38 C         144.3939  140.5218  157.4999 C.3     1  UNL1        0.0512
     39 C         140.3506  143.4856  161.0731 C.3     1  UNL1        0.0491
     40 C         139.4607  144.4413  161.8111 C.3     1  UNL1        0.0750
     41 N         139.4565  144.4563  163.3110 N.3     1  UNL1       -0.2702
     42 C         140.6977  144.8398  164.0607 C.3     1  UNL1        0.0897
     43 C         138.2110  144.0877  164.0612 C.3     1  UNL1        0.0897
@<TRIPOS>BOND
     1    34    35    1
     2    35    33    1
     3    33    27    1
     4    27    28   ar
     5    28    29   ar
     6    29    24    1
     7    24    25    1
     8    24    39    1
     9    39    40    1
    10    40    41    1
    11    41    42    1
    12    41    43    1
    13    24     1    1
    14     1     2    1
    15     2     3   ar
    16     3     4   ar
    17     4     5   ar
    18     5     6   ar
    19     6    12    1
    20    12    13    3
    21     6     7   ar
    22     7     8   ar
    23     8     9   ar
    24     9    10   ar
    25    10    11   ar
    26    11    14    1
    27    14    15    1
    28     1    16    1
    29    16    17   ar
    30    17    18   ar
    31    18    19   ar
    32    19    20   ar
    33    20    21    1
    34    20    22   ar
    35    22    23    1
    36    29    30   ar
    37    30    31   ar
    38    31    36    1
    39    36    37    1
    40    37    38    1
    41    31    32   ar
    42    32    27   ar
    43    11     2   ar
    44    22    16   ar
    45     9     4   ar
    46    25    26    1
@<TRIPOS>MOLECULE
*****
 43 46 0 0 0
SMALL
GASTEIGER

@<TRIPOS>ATOM
      1 C         141.3097  142.1708  164.1855 C.3     1  UNL1        0.0798
      2 C         142.1704  142.2971  162.9634 C.ar    1  UNL1        0.0374
      3 C         141.9689  141.3661  161.8047 C.ar    1  UNL1        0.0023
      4 C         142.8295  141.4924  160.5827 C.ar    1  UNL1        0.0183
      5 C         142.6280  140.5614  159.4240 C.ar    1  UNL1        0.0118
      6 C         143.4886  140.6877  158.2019 C.ar    1  UNL1        0.0685
      7 C         144.5508  141.7449  158.1386 C.ar    1  UNL1        0.0118
      8 C         144.7523  142.6759  159.2973 C.ar    1  UNL1        0.0199
      9 C         143.8917  142.5497  160.5193 C.ar    1  UNL1        0.0844
     10 N         144.0932  143.4807  161.6780 N.ar    1  UNL1       -0.2119
     11 C         143.2326  143.3544  162.9001 C.ar    1  UNL1        0.2211
     12 C         143.2871  139.7567  157.0432 C.1     1  UNL1        0.1004
     13 N         143.0856  138.8257  155.8844 N.1     1  UNL1       -0.1908
     14 O         143.4341  144.2854  164.0588 O.3     1  UNL1       -0.4563
     15 C         144.5194  144.0148  165.0584 C.3     1  UNL1        0.2542
     16 C         141.8696  141.5638  165.4377 C.ar    1  UNL1        0.0115
     17 C         141.8819  142.3531  166.7131 C.ar    1  UNL1       -0.0017
     18 C         142.4418  141.7461  167.9654 C.ar    1  UNL1       -0.0005
     19 C         142.9894  140.3498  167.9421 C.ar    1  UNL1       -0.0021
     20 C         142.9772  139.5606  166.6665 C.ar    1  UNL1        0.0053
     21 C         143.5248  138.1643  166.6433 C.3     1  UNL1        0.0334
     22 C         142.4173  140.1676  165.4144 C.ar    1  UNL1        0.1325
     23 F         142.4051  139.3783  164.1389 F       1  UNL1       -0.2048
     24 C         139.8892  142.6516  164.1553 C.3     1  UNL1        0.1162
     25 O         140.3627  144.0280  163.7928 O.3     1  UNL1       -0.3820
     26 H         139.5987  144.6178  163.6963 H       1  UNL1        0.2107
     27 C         138.6996  139.5433  166.3171 C.ar    1  UNL1        0.2271
     28 C         139.1731  140.9197  165.9546 C.ar    1  UNL1        0.0559
     29 C         139.4157  141.2752  164.5177 C.ar    1  UNL1        0.0117
     30 C         139.1848  140.2543  163.4433 C.ar    1  UNL1        0.0559
     31 C         138.7113  138.8780  163.8058 C.ar    1  UNL1        0.2271
     32 N         138.4687  138.5225  165.2427 N.ar    1  UNL1       -0.1767
     33 O         138.4570  139.1879  167.7541 O.3     1  UNL1       -0.4602
     34 C         138.5394  140.3084  170.0966 C.3     1  UNL1        0.0512
     35 C         139.2319  139.8765  168.8382 C.3     1  UNL1        0.2072
     36 O         138.4804  137.8571  162.7312 O.3     1  UNL1       -0.4602
     37 C         138.5871  138.2504  161.2877 C.3     1  UNL1        0.2072
     38 C         139.9262  138.2679  160.6121 C.3     1  UNL1        0.0512
     39 C         138.4686  143.1323  164.1251 C.3     1  UNL1        0.0491
     40 C         137.9159  143.7610  162.8804 C.3     1  UNL1        0.0750
     41 N         138.5456  143.4707  161.5503 N.3     1  UNL1       -0.2702
     42 C         138.1630  142.2335  160.7935 C.3     1  UNL1        0.0897
     43 C         139.5578  144.4176  160.9770 C.3     1  UNL1        0.0897
@<TRIPOS>BOND
     1    34    35    1
     2    35    33    1
     3    33    27    1
     4    27    28   ar
     5    28    29   ar
     6    29    24    1
     7    24    25    1
     8    24    39    1
     9    39    40    1
    10    40    41    1
    11    41    42    1
    12    41    43    1
    13    24     1    1
    14     1     2    1
    15     2     3   ar
    16     3     4   ar
    17     4     5   ar
    18     5     6   ar
    19     6    12    1
    20    12    13    3
    21     6     7   ar
    22     7     8   ar
    23     8     9   ar
    24     9    10   ar
    25    10    11   ar
    26    11    14    1
    27    14    15    1
    28     1    16    1
    29    16    17   ar
    30    17    18   ar
    31    18    19   ar
    32    19    20   ar
    33    20    21    1
    34    20    22   ar
    35    22    23    1
    36    29    30   ar
    37    30    31   ar
    38    31    36    1
    39    36    37    1
    40    37    38    1
    41    31    32   ar
    42    32    27   ar
    43    11     2   ar
    44    22    16   ar
    45     9     4   ar
    46    25    26    1
@<TRIPOS>MOLECULE
*****
 43 46 0 0 0
SMALL
GASTEIGER

@<TRIPOS>ATOM
      1 C         141.8804  142.2042  162.7004 C.3     1  UNL1        0.0798
      2 C         142.2558  142.2356  164.1524 C.ar    1  UNL1        0.0374
      3 C         141.3969  141.5369  165.1644 C.ar    1  UNL1        0.0023
      4 C         141.7722  141.5683  166.6163 C.ar    1  UNL1        0.0183
      5 C         140.9134  140.8695  167.6283 C.ar    1  UNL1        0.0118
      6 C         141.2888  140.9010  169.0803 C.ar    1  UNL1        0.0685
      7 C         142.5229  141.6313  169.5202 C.ar    1  UNL1        0.0118
      8 C         143.3818  142.3300  168.5082 C.ar    1  UNL1        0.0199
      9 C         143.0064  142.2986  167.0563 C.ar    1  UNL1        0.0844
     10 N         143.8653  142.9973  166.0443 N.ar    1  UNL1       -0.2119
     11 C         143.4899  142.9659  164.5923 C.ar    1  UNL1        0.2211
     12 C         140.4299  140.2023  170.0923 C.1     1  UNL1        0.1004
     13 N         139.5711  139.5035  171.1042 N.1     1  UNL1       -0.1908
     14 O         144.3487  143.6646  163.5803 O.3     1  UNL1       -0.4563
     15 C         144.0841  145.1003  163.2354 C.3     1  UNL1        0.2542
     16 C         141.2567  143.4090  162.0607 C.ar    1  UNL1        0.0115
     17 C         140.1811  144.1678  162.7800 C.ar    1  UNL1       -0.0017
     18 C         139.5573  145.3727  162.1403 C.ar    1  UNL1       -0.0005
     19 C         140.0092  145.8188  160.7813 C.ar    1  UNL1       -0.0021
     20 C         141.0848  145.0599  160.0620 C.ar    1  UNL1        0.0053
     21 C         141.5366  145.5060  158.7030 C.3     1  UNL1        0.0334
     22 C         141.7085  143.8551  160.7017 C.ar    1  UNL1        0.1325
     23 F         142.7840  143.0963  159.9824 F       1  UNL1       -0.2048
     24 C         142.1287  140.9678  161.8882 C.3     1  UNL1        0.1162
     25 O         143.6080  141.1663  162.0384 O.3     1  UNL1       -0.3820
     26 H         144.0782  140.4553  161.5755 H       1  UNL1        0.2107
     27 C         138.3285  140.2662  162.7915 C.ar    1  UNL1        0.2271
     28 C         139.8077  140.4647  162.9416 C.ar    1  UNL1        0.0559
     29 C         140.6495  140.7693  161.7381 C.ar    1  UNL1        0.0117
     30 C         140.0122  140.8752  160.3844 C.ar    1  UNL1        0.0559
     31 C         138.5330  140.6767  160.2343 C.ar    1  UNL1        0.2271
     32 N         137.6911  140.3722  161.4378 N.ar    1  UNL1       -0.1767
     33 O         137.4867  139.9617  163.9951 O.3     1  UNL1       -0.4602
     34 C         138.2976  138.5351  166.0093 C.3     1  UNL1        0.0512
     35 C         138.1217  139.8714  165.3510 C.3     1  UNL1        0.2072
     36 O         137.8956  140.7827  158.8805 O.3     1  UNL1       -0.4602
     37 C         138.6878  141.3014  157.7171 C.3     1  UNL1        0.2072
     38 C         138.6908  142.7688  157.4064 C.3     1  UNL1        0.0512
     39 C         142.3771  139.7314  161.0760 C.3     1  UNL1        0.0491
     40 C         142.9538  138.5095  161.7273 C.3     1  UNL1        0.0750
     41 N         142.5693  138.1570  163.1337 N.3     1  UNL1       -0.2702
     42 C         141.3486  137.3243  163.3912 C.3     1  UNL1        0.0897
     43 C         143.4056  138.6372  164.2826 C.3     1  UNL1        0.0897
@<TRIPOS>BOND
     1    34    35    1
     2    35    33    1
     3    33    27    1
     4    27    28   ar
     5    28    29   ar
     6    29    24    1
     7    24    25    1
     8    24    39    1
     9    39    40    1
    10    40    41    1
    11    41    42    1
    12    41    43    1
    13    24     1    1
    14     1     2    1
    15     2     3   ar
    16     3     4   ar
    17     4     5   ar
    18     5     6   ar
    19     6    12    1
    20    12    13    3
    21     6     7   ar
    22     7     8   ar
    23     8     9   ar
    24     9    10   ar
    25    10    11   ar
    26    11    14    1
    27    14    15    1
    28     1    16    1
    29    16    17   ar
    30    17    18   ar
    31    18    19   ar
    32    19    20   ar
    33    20    21    1
    34    20    22   ar
    35    22    23    1
    36    29    30   ar
    37    30    31   ar
    38    31    36    1
    39    36    37    1
    40    37    38    1
    41    31    32   ar
    42    32    27   ar
    43    11     2   ar
    44    22    16   ar
    45     9     4   ar
    46    25    26    1
@<TRIPOS>MOLECULE
*****
 43 46 0 0 0
SMALL
GASTEIGER

@<TRIPOS>ATOM
      1 C         141.8278  141.5385  162.2791 C.3     1  UNL1        0.0798
      2 C         142.0423  141.6604  163.7588 C.ar    1  UNL1        0.0374
      3 C         140.9840  141.1889  164.7114 C.ar    1  UNL1        0.0023
      4 C         141.1985  141.3108  166.1910 C.ar    1  UNL1        0.0183
      5 C         140.1402  140.8392  167.1436 C.ar    1  UNL1        0.0118
      6 C         140.3547  140.9611  168.6232 C.ar    1  UNL1        0.0685
      7 C         141.6275  141.5546  169.1501 C.ar    1  UNL1        0.0118
      8 C         142.6858  142.0262  168.1975 C.ar    1  UNL1        0.0199
      9 C         142.4714  141.9043  166.7179 C.ar    1  UNL1        0.0844
     10 N         143.5297  142.3759  165.7653 N.ar    1  UNL1       -0.2119
     11 C         143.3151  142.2539  164.2856 C.ar    1  UNL1        0.2211
     12 C         139.2964  140.4896  169.5759 C.1     1  UNL1        0.1004
     13 N         138.2380  140.0180  170.5285 N.1     1  UNL1       -0.1908
     14 O         144.3735  142.7255  163.3330 O.3     1  UNL1       -0.4563
     15 C         145.6728  141.9833  163.2281 C.3     1  UNL1        0.2542
     16 C         141.6363  142.7704  161.4450 C.ar    1  UNL1        0.0115
     17 C         142.2409  142.8496  160.0746 C.ar    1  UNL1       -0.0017
     18 C         142.0494  144.0815  159.2404 C.ar    1  UNL1       -0.0005
     19 C         141.2532  145.2341  159.7767 C.ar    1  UNL1       -0.0021
     20 C         140.6486  145.1548  161.1473 C.ar    1  UNL1        0.0053
     21 C         139.8524  146.3075  161.6836 C.3     1  UNL1        0.0334
     22 C         140.8401  143.9230  161.9814 C.ar    1  UNL1        0.1325
     23 F         140.2355  143.8437  163.3518 F       1  UNL1       -0.2048
     24 C         141.8048  140.1847  161.6337 C.3     1  UNL1        0.1162
     25 O         143.2426  139.9811  162.0094 O.3     1  UNL1       -0.3820
     26 H         143.5385  139.1118  161.6969 H       1  UNL1        0.2107
     27 C         138.4686  140.2902  159.4870 C.ar    1  UNL1        0.2271
     28 C         139.9064  140.0867  159.8627 C.ar    1  UNL1        0.0559
     29 C         140.3669  140.3882  161.2580 C.ar    1  UNL1        0.0117
     30 C         139.3896  140.8933  162.2776 C.ar    1  UNL1        0.0559
     31 C         137.9517  141.0968  161.9019 C.ar    1  UNL1        0.2271
     32 N         137.4912  140.7953  160.5066 N.ar    1  UNL1       -0.1767
     33 O         138.0081  139.9886  158.0916 O.3     1  UNL1       -0.4602
     34 C         136.4755  141.3790  156.5206 C.3     1  UNL1        0.0512
     35 C         137.8298  141.1029  157.1034 C.3     1  UNL1        0.2072
     36 O         136.9744  141.6019  162.9216 O.3     1  UNL1       -0.4602
     37 C         137.4682  142.1387  164.2323 C.3     1  UNL1        0.2072
     38 C         137.5649  143.6199  164.4477 C.3     1  UNL1        0.0512
     39 C         141.7818  138.8308  160.9883 C.3     1  UNL1        0.0491
     40 C         141.8406  137.5947  161.8360 C.3     1  UNL1        0.0750
     41 N         141.1950  137.5824  163.1899 N.3     1  UNL1       -0.2702
     42 C         142.0385  137.7035  164.4242 C.3     1  UNL1        0.0897
     43 C         139.7057  137.4488  163.3094 C.3     1  UNL1        0.0897
@<TRIPOS>BOND
     1    34    35    1
     2    35    33    1
     3    33    27    1
     4    27    28   ar
     5    28    29   ar
     6    29    24    1
     7    24    25    1
     8    24    39    1
     9    39    40    1
    10    40    41    1
    11    41    42    1
    12    41    43    1
    13    24     1    1
    14     1     2    1
    15     2     3   ar
    16     3     4   ar
    17     4     5   ar
    18     5     6   ar
    19     6    12    1
    20    12    13    3
    21     6     7   ar
    22     7     8   ar
    23     8     9   ar
    24     9    10   ar
    25    10    11   ar
    26    11    14    1
    27    14    15    1
    28     1    16    1
    29    16    17   ar
    30    17    18   ar
    31    18    19   ar
    32    19    20   ar
    33    20    21    1
    34    20    22   ar
    35    22    23    1
    36    29    30   ar
    37    30    31   ar
    38    31    36    1
    39    36    37    1
    40    37    38    1
    41    31    32   ar
    42    32    27   ar
    43    11     2   ar
    44    22    16   ar
    45     9     4   ar
    46    25    26    1
@<TRIPOS>MOLECULE
*****
 43 46 0 0 0
SMALL
GASTEIGER

@<TRIPOS>ATOM
      1 C         140.1039  141.3136  163.2173 C.3     1  UNL1        0.0798
      2 C         140.5182  141.4312  161.7804 C.ar    1  UNL1        0.0374
      3 C         141.9454  141.7364  161.4341 C.ar    1  UNL1        0.0023
      4 C         142.3598  141.8540  159.9973 C.ar    1  UNL1        0.0183
      5 C         143.7871  142.1592  159.6509 C.ar    1  UNL1        0.0118
      6 C         144.2014  142.2768  158.2140 C.ar    1  UNL1        0.0685
      7 C         143.1886  142.0894  157.1236 C.ar    1  UNL1        0.0118
      8 C         141.7614  141.7843  157.4700 C.ar    1  UNL1        0.0199
      9 C         141.3470  141.6666  158.9068 C.ar    1  UNL1        0.0844
     10 N         139.9198  141.3615  159.2532 N.ar    1  UNL1       -0.2119
     11 C         139.5054  141.2438  160.6900 C.ar    1  UNL1        0.2211
     12 C         145.6286  142.5820  157.8677 C.1     1  UNL1        0.1004
     13 N         147.0558  142.8871  157.5213 N.1     1  UNL1       -0.1908
     14 O         138.0782  140.9387  161.0364 O.3     1  UNL1       -0.4563
     15 C         137.5953  139.5185  161.0433 C.3     1  UNL1        0.2542
     16 C         140.0370  139.9650  163.8706 C.ar    1  UNL1        0.0115
     17 C         141.0716  138.9261  163.5539 C.ar    1  UNL1       -0.0017
     18 C         141.0048  137.5774  164.2072 C.ar    1  UNL1       -0.0005
     19 C         139.9032  137.2677  165.1770 C.ar    1  UNL1       -0.0021
     20 C         138.8685  138.3066  165.4936 C.ar    1  UNL1        0.0053
     21 C         137.7670  137.9968  166.4635 C.3     1  UNL1        0.0334
     22 C         138.9354  139.6552  164.8404 C.ar    1  UNL1        0.1325
     23 F         137.9008  140.6940  165.1570 F       1  UNL1       -0.2048
     24 C         139.7564  142.5445  164.0009 C.3     1  UNL1        0.1162
     25 O         138.5808  142.7856  163.1009 O.3     1  UNL1       -0.3820
     26 H         138.1156  143.5880  163.3846 H       1  UNL1        0.2107
     27 C         143.5021  142.1892  165.2632 C.ar    1  UNL1        0.2271
     28 C         142.3265  142.4303  164.3633 C.ar    1  UNL1        0.0559
     29 C         140.9320  142.3035  164.9009 C.ar    1  UNL1        0.0117
     30 C         140.7130  141.9356  166.3384 C.ar    1  UNL1        0.0559
     31 C         141.8885  141.6946  167.2384 C.ar    1  UNL1        0.2271
     32 N         143.2831  141.8214  166.7008 N.ar    1  UNL1       -0.1767
     33 O         144.8967  142.3161  164.7256 O.3     1  UNL1       -0.4602
     34 C         144.8325  139.8352  163.9567 C.3     1  UNL1        0.0512
     35 C         145.5342  141.1598  164.0138 C.3     1  UNL1        0.2072
     36 O         141.6695  141.3267  168.6760 O.3     1  UNL1       -0.4602
     37 C         140.4698  141.8491  169.4095 C.3     1  UNL1        0.2072
     38 C         139.4448  140.8948  169.9466 C.3     1  UNL1        0.0512
     39 C         139.4090  143.7755  164.7844 C.3     1  UNL1        0.0491
     40 C         139.2649  145.0943  164.0845 C.3     1  UNL1        0.0750
     41 N         140.2232  145.4735  162.9945 N.3     1  UNL1       -0.2702
     42 C         141.6975  145.5040  163.2691 C.3     1  UNL1        0.0897
     43 C         139.7071  145.8222  161.6300 C.3     1  UNL1        0.0897
@<TRIPOS>BOND
     1    34    35    1
     2    35    33    1
     3    33    27    1
     4    27    28   ar
     5    28    29   ar
     6    29    24    1
     7    24    25    1
     8    24    39    1
     9    39    40    1
    10    40    41    1
    11    41    42    1
    12    41    43    1
    13    24     1    1
    14     1     2    1
    15     2     3   ar
    16     3     4   ar
    17     4     5   ar
    18     5     6   ar
    19     6    12    1
    20    12    13    3
    21     6     7   ar
    22     7     8   ar
    23     8     9   ar
    24     9    10   ar
    25    10    11   ar
    26    11    14    1
    27    14    15    1
    28     1    16    1
    29    16    17   ar
    30    17    18   ar
    31    18    19   ar
    32    19    20   ar
    33    20    21    1
    34    20    22   ar
    35    22    23    1
    36    29    30   ar
    37    30    31   ar
    38    31    36    1
    39    36    37    1
    40    37    38    1
    41    31    32   ar
    42    32    27   ar
    43    11     2   ar
    44    22    16   ar
    45     9     4   ar
    46    25    26    1
