@<TRIPOS>MOLECULE
*****
 38 43 0 0 0
SMALL
GASTEIGER

@<TRIPOS>ATOM
      1 C         140.4873  143.5254  157.4585 C.3     1  UNL1        0.0652
      2 S         141.8197  144.0528  157.9018 S.3     1  UNL1       -0.0757
      3 C         143.1959  142.9614  161.3632 C.ar    1  UNL1        0.1669
      4 N         142.6465  144.3195  161.6848 N.ar    1  UNL1       -0.1282
      5 N         142.0641  144.8937  160.4275 N.ar    1  UNL1       -0.1221
      6 C         142.2536  143.8904  159.3286 C.ar    1  UNL1        0.1932
      7 N         142.9531  142.6961  159.9069 N.ar    1  UNL1       -0.2884
      8 C         143.3416  141.4547  159.1601 C.3     1  UNL1        0.1340
      9 C         141.1375  136.9635  164.0162 C.3     1  UNL1        0.0521
     10 C         141.8206  138.2306  163.5942 C.ar    1  UNL1        0.0593
     11 C         141.1467  139.1604  162.6291 C.ar    1  UNL1        0.0147
     12 C         141.8297  140.4274  162.2071 C.ar    1  UNL1        0.0028
     13 C         143.1867  140.7646  162.7502 C.ar    1  UNL1        0.0206
     14 C         143.8698  142.0316  162.3282 C.ar    1  UNL1        0.0374
     15 C         145.2268  142.3688  162.8712 C.ar    1  UNL1        0.0031
     16 C         145.9007  141.4390  163.8363 C.ar    1  UNL1        0.0016
     17 C         145.2176  140.1720  164.2583 C.ar    1  UNL1        0.0191
     18 C         143.8606  139.8348  163.7152 C.ar    1  UNL1        0.0810
     19 N         143.1776  138.5678  164.1373 N.ar    1  UNL1       -0.2497
     20 C         139.3486  143.4512  158.4319 C.3     1  UNL1        0.0135
     21 C         139.2052  142.2574  159.3289 C.3     1  UNL1        0.0182
     22 C         138.1354  142.2332  160.3800 C.3     1  UNL1        0.0721
     23 N         138.5009  142.0069  161.8171 N.3     1  UNL1       -0.2721
     24 C         139.3204  143.0875  162.4580 C.3     1  UNL1        0.0768
     25 C         139.8400  143.1580  163.8635 C.3     1  UNL1        0.0434
     26 C         139.6684  142.1655  164.9748 C.ar    1  UNL1       -0.0225
     27 C         140.3517  142.6238  166.2291 C.ar    1  UNL1        0.0178
     28 C         140.3014  141.7737  167.4640 C.ar    1  UNL1        0.1187
     29 N         140.8757  141.9628  168.8367 N.ar    1  UNL1       -0.2121
     30 C         140.4970  140.7715  169.6658 C.ar    1  UNL1        0.2062
     31 C         140.8625  140.5453  171.1029 C.3     1  UNL1        0.0950
     32 O         139.6887  139.8461  168.8054 O.2     1  UNL1       -0.4379
     33 C         139.5678  140.4655  167.4447 C.ar    1  UNL1        0.1701
     34 C         138.8845  140.0073  166.1904 C.ar    1  UNL1        0.0664
     35 BR        138.1509  138.6991  166.1711 Br      1  UNL1       -0.0461
     36 C         138.9348  140.8573  164.9556 C.ar    1  UNL1       -0.0154
     37 C         138.1916  140.2185  163.8199 C.3     1  UNL1        0.0439
     38 C         137.9986  140.7302  162.4232 C.3     1  UNL1        0.0768
@<TRIPOS>BOND
     1     9    10    1
     2    10    11   ar
     3    11    12   ar
     4    12    13   ar
     5    13    14   ar
     6    14     3    1
     7     3     4   ar
     8     4     5   ar
     9     5     6   ar
    10     6     2    1
    11     2     1    1
    12     1    20    1
    13    20    21    1
    14    21    22    1
    15    22    23    1
    16    23    24    1
    17    24    25    1
    18    25    26    1
    19    26    27   ar
    20    27    28   ar
    21    28    29   ar
    22    29    30   ar
    23    30    31    1
    24    30    32   ar
    25    32    33   ar
    26    33    34   ar
    27    34    35    1
    28    34    36   ar
    29    36    37    1
    30    37    38    1
    31     6     7   ar
    32     7     8    1
    33    14    15   ar
    34    15    16   ar
    35    16    17   ar
    36    17    18   ar
    37    18    19   ar
    38    19    10   ar
    39    18    13   ar
    40     7     3   ar
    41    38    23    1
    42    36    26   ar
    43    33    28   ar
@<TRIPOS>MOLECULE
*****
 38 43 0 0 0
SMALL
GASTEIGER

@<TRIPOS>ATOM
      1 C         141.6211  138.3742  158.2307 C.3     1  UNL1        0.0652
      2 S         140.1523  138.5598  158.4723 S.3     1  UNL1       -0.0757
      3 C         139.1749  140.8189  161.4735 C.ar    1  UNL1        0.1669
      4 N         138.7091  139.4775  161.9566 N.ar    1  UNL1       -0.1282
      5 N         139.0185  138.4679  160.8913 N.ar    1  UNL1       -0.1221
      6 C         139.6756  139.1854  159.7496 C.ar    1  UNL1        0.1932
      7 N         139.7722  140.6384  160.1094 N.ar    1  UNL1       -0.2884
      8 C         140.3626  141.7209  159.2552 C.3     1  UNL1        0.1340
      9 C         143.9969  144.7848  164.3491 C.3     1  UNL1        0.0521
     10 C         142.7635  144.1170  163.8175 C.ar    1  UNL1        0.0593
     11 C         142.8753  142.8223  163.0683 C.ar    1  UNL1        0.0147
     12 C         141.6418  142.1545  162.5366 C.ar    1  UNL1        0.0028
     13 C         140.2966  142.7813  162.7542 C.ar    1  UNL1        0.0206
     14 C         139.0630  142.1136  162.2226 C.ar    1  UNL1        0.0374
     15 C         137.7178  142.7405  162.4402 C.ar    1  UNL1        0.0031
     16 C         137.6061  144.0351  163.1894 C.ar    1  UNL1        0.0016
     17 C         138.8395  144.7029  163.7211 C.ar    1  UNL1        0.0191
     18 C         140.1848  144.0761  163.5035 C.ar    1  UNL1        0.0810
     19 N         141.4182  144.7439  164.0351 N.ar    1  UNL1       -0.2497
     20 C         142.5994  138.6068  159.3437 C.3     1  UNL1        0.0135
     21 C         143.0075  137.4701  160.2333 C.3     1  UNL1        0.0182
     22 C         143.9066  137.7219  161.4072 C.3     1  UNL1        0.0721
     23 N         143.3634  138.3812  162.6402 N.3     1  UNL1       -0.2721
     24 C         144.3233  139.2621  163.3837 C.3     1  UNL1        0.0768
     25 C         144.0890  140.0518  164.6374 C.3     1  UNL1        0.0434
     26 C         142.8372  140.1557  165.4570 C.ar    1  UNL1       -0.0225
     27 C         143.0302  141.0568  166.6406 C.ar    1  UNL1        0.0178
     28 C         141.8965  141.2977  167.5927 C.ar    1  UNL1        0.1187
     29 N         141.7899  142.1287  168.8368 N.ar    1  UNL1       -0.2121
     30 C         140.3972  141.9822  169.3743 C.ar    1  UNL1        0.2062
     31 C         139.8541  142.6415  170.6073 C.3     1  UNL1        0.0950
     32 O         139.6430  141.0606  168.4623 O.2     1  UNL1       -0.4379
     33 C         140.5695  140.6375  167.3612 C.ar    1  UNL1        0.1701
     34 C         140.3765  139.7364  166.1777 C.ar    1  UNL1        0.0664
     35 BR        139.0496  139.0763  165.9462 Br      1  UNL1       -0.0461
     36 C         141.5103  139.4955  165.2256 C.ar    1  UNL1       -0.0154
     37 C         141.1076  138.5684  164.1173 C.3     1  UNL1        0.0439
     38 C         141.9324  138.0725  162.9667 C.3     1  UNL1        0.0768
@<TRIPOS>BOND
     1     9    10    1
     2    10    11   ar
     3    11    12   ar
     4    12    13   ar
     5    13    14   ar
     6    14     3    1
     7     3     4   ar
     8     4     5   ar
     9     5     6   ar
    10     6     2    1
    11     2     1    1
    12     1    20    1
    13    20    21    1
    14    21    22    1
    15    22    23    1
    16    23    24    1
    17    24    25    1
    18    25    26    1
    19    26    27   ar
    20    27    28   ar
    21    28    29   ar
    22    29    30   ar
    23    30    31    1
    24    30    32   ar
    25    32    33   ar
    26    33    34   ar
    27    34    35    1
    28    34    36   ar
    29    36    37    1
    30    37    38    1
    31     6     7   ar
    32     7     8    1
    33    14    15   ar
    34    15    16   ar
    35    16    17   ar
    36    17    18   ar
    37    18    19   ar
    38    19    10   ar
    39    18    13   ar
    40     7     3   ar
    41    38    23    1
    42    36    26   ar
    43    33    28   ar
@<TRIPOS>MOLECULE
*****
 38 43 0 0 0
SMALL
GASTEIGER

@<TRIPOS>ATOM
      1 C         139.1485  140.3495  157.0981 C.3     1  UNL1        0.0652
      2 S         138.1474  141.2910  157.6992 S.3     1  UNL1       -0.0757
      3 C         138.9576  143.2539  160.9483 C.ar    1  UNL1        0.1669
      4 N         139.4821  144.1937  159.9035 N.ar    1  UNL1       -0.1282
      5 N         139.2424  143.5729  158.5592 N.ar    1  UNL1       -0.1221
      6 C         138.5698  142.2493  158.7732 C.ar    1  UNL1        0.1932
      7 N         138.3938  142.0521  160.2498 N.ar    1  UNL1       -0.2884
      8 C         137.7645  140.8622  160.9116 C.3     1  UNL1        0.1340
      9 C         144.0372  142.4402  165.5074 C.3     1  UNL1        0.0521
     10 C         142.7757  142.6993  164.7384 C.ar    1  UNL1        0.0593
     11 C         142.7422  142.4766  163.2553 C.ar    1  UNL1        0.0147
     12 C         141.4807  142.7357  162.4863 C.ar    1  UNL1        0.0028
     13 C         140.2527  143.2175  163.2003 C.ar    1  UNL1        0.0206
     14 C         138.9910  143.4767  162.4313 C.ar    1  UNL1        0.0374
     15 C         137.7630  143.9585  163.1452 C.ar    1  UNL1        0.0031
     16 C         137.7966  144.1812  164.6282 C.ar    1  UNL1        0.0016
     17 C         139.0581  143.9221  165.3973 C.ar    1  UNL1        0.0191
     18 C         140.2861  143.4403  164.6833 C.ar    1  UNL1        0.0810
     19 N         141.5476  143.1812  165.4523 N.ar    1  UNL1       -0.2497
     20 C         139.7657  139.2730  157.9407 C.3     1  UNL1        0.0135
     21 C         140.9470  139.5861  158.8106 C.3     1  UNL1        0.0182
     22 C         141.5331  138.5224  159.6909 C.3     1  UNL1        0.0721
     23 N         141.5878  138.7241  161.1763 N.3     1  UNL1       -0.2721
     24 C         142.9169  138.4611  161.8202 C.3     1  UNL1        0.0768
     25 C         143.2926  138.5712  163.2682 C.3     1  UNL1        0.0434
     26 C         142.4323  138.9714  164.4298 C.ar    1  UNL1       -0.0225
     27 C         143.2041  138.9516  165.7159 C.ar    1  UNL1        0.0178
     28 C         142.5272  139.3208  167.0026 C.ar    1  UNL1        0.1187
     29 N         143.0269  139.3924  168.4150 N.ar    1  UNL1       -0.2121
     30 C         141.8872  139.8258  169.2886 C.ar    1  UNL1        0.2062
     31 C         141.9420  140.0275  170.7740 C.3     1  UNL1        0.0950
     32 O         140.6830  140.0219  168.4161 O.2     1  UNL1       -0.4379
     33 C         141.0785  139.7099  167.0033 C.ar    1  UNL1        0.1701
     34 C         140.3067  139.7297  165.7172 C.ar    1  UNL1        0.0664
     35 BR        138.8581  140.1188  165.7178 Br      1  UNL1       -0.0461
     36 C         140.9836  139.3605  164.4305 C.ar    1  UNL1       -0.0154
     37 C         140.0375  139.4454  163.2696 C.3     1  UNL1        0.0439
     38 C         140.3065  139.1621  161.8213 C.3     1  UNL1        0.0768
@<TRIPOS>BOND
     1     9    10    1
     2    10    11   ar
     3    11    12   ar
     4    12    13   ar
     5    13    14   ar
     6    14     3    1
     7     3     4   ar
     8     4     5   ar
     9     5     6   ar
    10     6     2    1
    11     2     1    1
    12     1    20    1
    13    20    21    1
    14    21    22    1
    15    22    23    1
    16    23    24    1
    17    24    25    1
    18    25    26    1
    19    26    27   ar
    20    27    28   ar
    21    28    29   ar
    22    29    30   ar
    23    30    31    1
    24    30    32   ar
    25    32    33   ar
    26    33    34   ar
    27    34    35    1
    28    34    36   ar
    29    36    37    1
    30    37    38    1
    31     6     7   ar
    32     7     8    1
    33    14    15   ar
    34    15    16   ar
    35    16    17   ar
    36    17    18   ar
    37    18    19   ar
    38    19    10   ar
    39    18    13   ar
    40     7     3   ar
    41    38    23    1
    42    36    26   ar
    43    33    28   ar
@<TRIPOS>MOLECULE
*****
 38 43 0 0 0
SMALL
GASTEIGER

@<TRIPOS>ATOM
      1 C         142.5564  143.9639  157.9819 C.3     1  UNL1        0.0652
      2 S         143.4200  142.7540  158.1834 S.3     1  UNL1       -0.0757
      3 C         142.9460  140.4444  161.2667 C.ar    1  UNL1        0.1669
      4 N         141.9743  139.8380  160.2982 N.ar    1  UNL1       -0.1282
      5 N         142.0335  140.6293  159.0253 N.ar    1  UNL1       -0.1221
      6 C         143.0419  141.7248  159.2071 C.ar    1  UNL1        0.1932
      7 N         143.6059  141.6105  160.5924 N.ar    1  UNL1       -0.2884
      8 C         144.6469  142.5052  161.1971 C.3     1  UNL1        0.1340
      9 C         138.6661  139.3228  166.5274 C.3     1  UNL1        0.0521
     10 C         139.8024  139.4842  165.5616 C.ar    1  UNL1        0.0593
     11 C         139.5371  139.9603  164.1640 C.ar    1  UNL1        0.0147
     12 C         140.6734  140.1217  163.1982 C.ar    1  UNL1        0.0028
     13 C         142.0750  139.8069  163.6299 C.ar    1  UNL1        0.0206
     14 C         143.2114  139.9683  162.6641 C.ar    1  UNL1        0.0374
     15 C         144.6130  139.6536  163.0958 C.ar    1  UNL1        0.0031
     16 C         144.8783  139.1775  164.4933 C.ar    1  UNL1        0.0016
     17 C         143.7420  139.0161  165.4591 C.ar    1  UNL1        0.0191
     18 C         142.3404  139.3308  165.0274 C.ar    1  UNL1        0.0810
     19 N         141.2041  139.1695  165.9932 N.ar    1  UNL1       -0.2497
     20 C         141.3363  144.1642  158.8310 C.3     1  UNL1        0.0135
     21 C         141.1052  145.4799  159.5134 C.3     1  UNL1        0.0182
     22 C         140.1184  145.5779  160.6388 C.3     1  UNL1        0.0721
     23 N         140.4226  144.9381  161.9610 N.3     1  UNL1       -0.2721
     24 C         139.2451  144.7184  162.8639 C.3     1  UNL1        0.0768
     25 C         139.2183  144.1089  164.2343 C.3     1  UNL1        0.0434
     26 C         140.3622  143.5686  165.0400 C.ar    1  UNL1       -0.0225
     27 C         139.8989  143.0466  166.3679 C.ar    1  UNL1        0.0178
     28 C         140.8890  142.4604  167.3301 C.ar    1  UNL1        0.1187
     29 N         140.7293  141.8717  168.7005 N.ar    1  UNL1       -0.2121
     30 C         142.0839  141.4436  169.1820 C.ar    1  UNL1        0.2062
     31 C         142.3880  140.8038  170.5041 C.3     1  UNL1        0.0950
     32 O         143.0808  141.7677  168.1092 O.2     1  UNL1       -0.4379
     33 C         142.3424  142.3960  166.9647 C.ar    1  UNL1        0.1701
     34 C         142.8057  142.9180  165.6369 C.ar    1  UNL1        0.0664
     35 BR        144.2590  142.8538  165.2715 Br      1  UNL1       -0.0461
     36 C         141.8156  143.5043  164.6746 C.ar    1  UNL1       -0.0154
     37 C         142.4840  143.9645  163.4131 C.3     1  UNL1        0.0439
     38 C         141.8639  144.6025  162.2054 C.3     1  UNL1        0.0768
@<TRIPOS>BOND
     1     9    10    1
     2    10    11   ar
     3    11    12   ar
     4    12    13   ar
     5    13    14   ar
     6    14     3    1
     7     3     4   ar
     8     4     5   ar
     9     5     6   ar
    10     6     2    1
    11     2     1    1
    12     1    20    1
    13    20    21    1
    14    21    22    1
    15    22    23    1
    16    23    24    1
    17    24    25    1
    18    25    26    1
    19    26    27   ar
    20    27    28   ar
    21    28    29   ar
    22    29    30   ar
    23    30    31    1
    24    30    32   ar
    25    32    33   ar
    26    33    34   ar
    27    34    35    1
    28    34    36   ar
    29    36    37    1
    30    37    38    1
    31     6     7   ar
    32     7     8    1
    33    14    15   ar
    34    15    16   ar
    35    16    17   ar
    36    17    18   ar
    37    18    19   ar
    38    19    10   ar
    39    18    13   ar
    40     7     3   ar
    41    38    23    1
    42    36    26   ar
    43    33    28   ar
@<TRIPOS>MOLECULE
*****
 38 43 0 0 0
SMALL
GASTEIGER

@<TRIPOS>ATOM
      1 C         141.7143  140.3156  156.7052 C.3     1  UNL1        0.0652
      2 S         140.4253  141.0712  156.8372 S.3     1  UNL1       -0.0757
      3 C         138.5563  141.0628  160.2391 C.ar    1  UNL1        0.1669
      4 N         137.8345  139.9692  159.5091 N.ar    1  UNL1       -0.1282
      5 N         138.4466  139.8392  158.1459 N.ar    1  UNL1       -0.1221
      6 C         139.5469  140.8525  158.0334 C.ar    1  UNL1        0.1932
      7 N         139.6147  141.6088  159.3271 N.ar    1  UNL1       -0.2884
      8 C         140.5726  142.7164  159.6517 C.3     1  UNL1        0.1340
      9 C         138.4758  137.6369  166.1978 C.3     1  UNL1        0.0521
     10 C         138.4244  138.6098  165.0573 C.ar    1  UNL1        0.0593
     11 C         138.7106  138.1439  163.6605 C.ar    1  UNL1        0.0147
     12 C         138.6592  139.1169  162.5200 C.ar    1  UNL1        0.0028
     13 C         138.3215  140.5557  162.7763 C.ar    1  UNL1        0.0206
     14 C         138.2701  141.5288  161.6358 C.ar    1  UNL1        0.0374
     15 C         137.9325  142.9676  161.8922 C.ar    1  UNL1        0.0031
     16 C         137.6463  143.4335  163.2890 C.ar    1  UNL1        0.0016
     17 C         137.6977  142.4605  164.4295 C.ar    1  UNL1        0.0191
     18 C         138.0353  141.0216  164.1731 C.ar    1  UNL1        0.0810
     19 N         138.0868  140.0487  165.3136 N.ar    1  UNL1       -0.2497
     20 C         142.0771  139.2691  157.7166 C.3     1  UNL1        0.0135
     21 C         142.9553  139.6231  158.8801 C.3     1  UNL1        0.0182
     22 C         143.0398  138.7044  160.0628 C.3     1  UNL1        0.0721
     23 N         142.6802  139.2065  161.4298 N.3     1  UNL1       -0.2721
     24 C         142.6788  138.1776  162.5214 C.3     1  UNL1        0.0768
     25 C         142.3664  138.3592  163.9773 C.3     1  UNL1        0.0434
     26 C         141.9782  139.6143  164.7010 C.ar    1  UNL1       -0.0225
     27 C         141.7526  139.3572  166.1615 C.ar    1  UNL1        0.0178
     28 C         141.3554  140.4838  167.0687 C.ar    1  UNL1        0.1187
     29 N         141.0664  140.5337  168.5398 N.ar    1  UNL1       -0.2121
     30 C         140.7162  141.9482  168.8957 C.ar    1  UNL1        0.2062
     31 C         140.3566  142.4501  170.2627 C.3     1  UNL1        0.0950
     32 O         140.7887  142.7724  167.6446 O.2     1  UNL1       -0.4379
     33 C         141.1838  141.8675  166.5155 C.ar    1  UNL1        0.1701
     34 C         141.4094  142.1245  165.0550 C.ar    1  UNL1        0.0664
     35 BR        141.2378  143.5081  164.5017 Br      1  UNL1       -0.0461
     36 C         141.8066  140.9980  164.1478 C.ar    1  UNL1       -0.0154
     37 C         141.9808  141.4682  162.7341 C.3     1  UNL1        0.0439
     38 C         142.3696  140.6708  161.5245 C.3     1  UNL1        0.0768
@<TRIPOS>BOND
     1     9    10    1
     2    10    11   ar
     3    11    12   ar
     4    12    13   ar
     5    13    14   ar
     6    14     3    1
     7     3     4   ar
     8     4     5   ar
     9     5     6   ar
    10     6     2    1
    11     2     1    1
    12     1    20    1
    13    20    21    1
    14    21    22    1
    15    22    23    1
    16    23    24    1
    17    24    25    1
    18    25    26    1
    19    26    27   ar
    20    27    28   ar
    21    28    29   ar
    22    29    30   ar
    23    30    31    1
    24    30    32   ar
    25    32    33   ar
    26    33    34   ar
    27    34    35    1
    28    34    36   ar
    29    36    37    1
    30    37    38    1
    31     6     7   ar
    32     7     8    1
    33    14    15   ar
    34    15    16   ar
    35    16    17   ar
    36    17    18   ar
    37    18    19   ar
    38    19    10   ar
    39    18    13   ar
    40     7     3   ar
    41    38    23    1
    42    36    26   ar
    43    33    28   ar
@<TRIPOS>MOLECULE
*****
 38 43 0 0 0
SMALL
GASTEIGER

@<TRIPOS>ATOM
      1 C         142.3168  144.5269  157.3284 C.3     1  UNL1        0.0652
      2 S         140.8264  144.6785  157.4034 S.3     1  UNL1       -0.0757
      3 C         139.0666  142.8259  160.3252 C.ar    1  UNL1        0.1669
      4 N         138.5348  142.0725  159.1422 N.ar    1  UNL1       -0.1282
      5 N         139.1292  142.6747  157.9037 N.ar    1  UNL1       -0.1221
      6 C         140.0285  143.8004  158.3212 C.ar    1  UNL1        0.1932
      7 N         139.9898  143.8938  159.8179 N.ar    1  UNL1       -0.2884
      8 C         140.7422  144.8817  160.6593 C.3     1  UNL1        0.1340
      9 C         140.4407  137.4108  164.3300 C.3     1  UNL1        0.0521
     10 C         140.0140  138.6977  163.6883 C.ar    1  UNL1        0.0593
     11 C         140.3468  138.9652  162.2503 C.ar    1  UNL1        0.0147
     12 C         139.9201  140.2521  161.6086 C.ar    1  UNL1        0.0028
     13 C         139.1606  141.2715  162.4048 C.ar    1  UNL1        0.0206
     14 C         138.7338  142.5585  161.7631 C.ar    1  UNL1        0.0374
     15 C         137.9743  143.5779  162.5594 C.ar    1  UNL1        0.0031
     16 C         137.6416  143.3103  163.9973 C.ar    1  UNL1        0.0016
     17 C         138.0683  142.0234  164.6391 C.ar    1  UNL1        0.0191
     18 C         138.8278  141.0040  163.8428 C.ar    1  UNL1        0.0810
     19 N         139.2545  139.7171  164.4845 N.ar    1  UNL1       -0.2497
     20 C         142.9476  143.1881  157.5723 C.3     1  UNL1        0.0135
     21 C         143.6236  142.9047  158.8811 C.3     1  UNL1        0.0182
     22 C         143.7639  141.4909  159.3621 C.3     1  UNL1        0.0721
     23 N         143.5834  141.1722  160.8167 N.3     1  UNL1       -0.2721
     24 C         144.1337  139.8512  161.2666 C.3     1  UNL1        0.0768
     25 C         144.1129  139.2483  162.6400 C.3     1  UNL1        0.0434
     26 C         143.5369  139.8174  163.9026 C.ar    1  UNL1       -0.0225
     27 C         143.7294  138.8850  165.0618 C.ar    1  UNL1        0.0178
     28 C         143.2242  139.2652  166.4220 C.ar    1  UNL1        0.1187
     29 N         143.2681  138.5565  167.7432 N.ar    1  UNL1       -0.2121
     30 C         142.5976  139.4310  168.7609 C.ar    1  UNL1        0.2062
     31 C         142.4171  139.1121  170.2155 C.3     1  UNL1        0.0950
     32 O         142.1393  140.6802  168.0686 O.2     1  UNL1       -0.4379
     33 C         142.5265  140.5778  166.6232 C.ar    1  UNL1        0.1701
     34 C         142.3340  141.5102  165.4640 C.ar    1  UNL1        0.0664
     35 BR        141.6364  142.8227  165.6651 Br      1  UNL1       -0.0461
     36 C         142.8392  141.1300  164.1037 C.ar    1  UNL1       -0.0154
     37 C         142.5453  142.1976  163.0919 C.3     1  UNL1        0.0439
     38 C         142.8765  142.2163  161.6290 C.3     1  UNL1        0.0768
@<TRIPOS>BOND
     1     9    10    1
     2    10    11   ar
     3    11    12   ar
     4    12    13   ar
     5    13    14   ar
     6    14     3    1
     7     3     4   ar
     8     4     5   ar
     9     5     6   ar
    10     6     2    1
    11     2     1    1
    12     1    20    1
    13    20    21    1
    14    21    22    1
    15    22    23    1
    16    23    24    1
    17    24    25    1
    18    25    26    1
    19    26    27   ar
    20    27    28   ar
    21    28    29   ar
    22    29    30   ar
    23    30    31    1
    24    30    32   ar
    25    32    33   ar
    26    33    34   ar
    27    34    35    1
    28    34    36   ar
    29    36    37    1
    30    37    38    1
    31     6     7   ar
    32     7     8    1
    33    14    15   ar
    34    15    16   ar
    35    16    17   ar
    36    17    18   ar
    37    18    19   ar
    38    19    10   ar
    39    18    13   ar
    40     7     3   ar
    41    38    23    1
    42    36    26   ar
    43    33    28   ar
@<TRIPOS>MOLECULE
*****
 38 43 0 0 0
SMALL
GASTEIGER

@<TRIPOS>ATOM
      1 C         141.7899  138.7166  157.2059 C.3     1  UNL1        0.0652
      2 S         143.0652  139.4974  157.3257 S.3     1  UNL1       -0.0757
      3 C         143.5721  141.6639  160.5061 C.ar    1  UNL1        0.1669
      4 N         143.2392  142.7152  159.4893 N.ar    1  UNL1       -0.1282
      5 N         143.0087  142.0316  158.1742 N.ar    1  UNL1       -0.1221
      6 C         143.1993  140.5578  158.3782 C.ar    1  UNL1        0.1932
      7 N         143.5474  140.3305  159.8194 N.ar    1  UNL1       -0.2884
      8 C         143.8226  139.0030  160.4612 C.3     1  UNL1        0.1340
      9 C         139.5373  143.7496  165.6656 C.3     1  UNL1        0.0521
     10 C         140.6220  143.2881  164.7380 C.ar    1  UNL1        0.0593
     11 C         140.3179  143.0483  163.2888 C.ar    1  UNL1        0.0147
     12 C         141.4026  142.5868  162.3612 C.ar    1  UNL1        0.0028
     13 C         142.7914  142.3652  162.8828 C.ar    1  UNL1        0.0206
     14 C         143.8762  141.9037  161.9552 C.ar    1  UNL1        0.0374
     15 C         145.2651  141.6821  162.4768 C.ar    1  UNL1        0.0031
     16 C         145.5691  141.9220  163.9259 C.ar    1  UNL1        0.0016
     17 C         144.4844  142.3835  164.8535 C.ar    1  UNL1        0.0191
     18 C         143.0956  142.6051  164.3319 C.ar    1  UNL1        0.0810
     19 N         142.0108  143.0665  165.2596 N.ar    1  UNL1       -0.2497
     20 C         140.5773  139.1374  157.9821 C.3     1  UNL1        0.0135
     21 C         140.2031  138.4115  159.2404 C.3     1  UNL1        0.0182
     22 C         139.1323  138.9632  160.1342 C.3     1  UNL1        0.0721
     23 N         139.4102  139.1793  161.5924 N.3     1  UNL1       -0.2721
     24 C         138.2519  139.6693  162.4099 C.3     1  UNL1        0.0768
     25 C         138.2069  139.9778  163.8772 C.3     1  UNL1        0.0434
     26 C         139.3090  139.8726  164.8892 C.ar    1  UNL1       -0.0225
     27 C         138.8399  140.2796  166.2546 C.ar    1  UNL1        0.0178
     28 C         139.7902  140.2469  167.4148 C.ar    1  UNL1        0.1187
     29 N         139.6158  140.5883  168.8649 N.ar    1  UNL1       -0.2121
     30 C         140.9274  140.3596  169.5560 C.ar    1  UNL1        0.2062
     31 C         141.2051  140.5757  171.0141 C.3     1  UNL1        0.0950
     32 O         141.9123  139.8769  168.5329 O.2     1  UNL1       -0.4379
     33 C         141.2095  139.8072  167.2096 C.ar    1  UNL1        0.1701
     34 C         141.6786  139.4002  165.8441 C.ar    1  UNL1        0.0664
     35 BR        143.0979  138.9605  165.6389 Br      1  UNL1       -0.0461
     36 C         140.7284  139.4329  164.6840 C.ar    1  UNL1       -0.0154
     37 C         141.3961  138.9898  163.4160 C.3     1  UNL1        0.0439
     38 C         140.8094  138.8770  162.0401 C.3     1  UNL1        0.0768
@<TRIPOS>BOND
     1     9    10    1
     2    10    11   ar
     3    11    12   ar
     4    12    13   ar
     5    13    14   ar
     6    14     3    1
     7     3     4   ar
     8     4     5   ar
     9     5     6   ar
    10     6     2    1
    11     2     1    1
    12     1    20    1
    13    20    21    1
    14    21    22    1
    15    22    23    1
    16    23    24    1
    17    24    25    1
    18    25    26    1
    19    26    27   ar
    20    27    28   ar
    21    28    29   ar
    22    29    30   ar
    23    30    31    1
    24    30    32   ar
    25    32    33   ar
    26    33    34   ar
    27    34    35    1
    28    34    36   ar
    29    36    37    1
    30    37    38    1
    31     6     7   ar
    32     7     8    1
    33    14    15   ar
    34    15    16   ar
    35    16    17   ar
    36    17    18   ar
    37    18    19   ar
    38    19    10   ar
    39    18    13   ar
    40     7     3   ar
    41    38    23    1
    42    36    26   ar
    43    33    28   ar
@<TRIPOS>MOLECULE
*****
 38 43 0 0 0
SMALL
GASTEIGER

@<TRIPOS>ATOM
      1 C         139.3804  142.6389  157.3664 C.3     1  UNL1        0.0652
      2 S         140.1248  143.6937  158.1301 S.3     1  UNL1       -0.0757
      3 C         142.5152  143.1339  161.1366 C.ar    1  UNL1        0.1669
      4 N         143.1417  142.2495  160.0996 N.ar    1  UNL1       -0.1282
      5 N         142.3226  142.3515  158.8472 N.ar    1  UNL1       -0.1221
      6 C         141.1898  143.2990  159.1101 C.ar    1  UNL1        0.1932
      7 N         141.3088  143.7826  160.5250 N.ar    1  UNL1       -0.2884
      8 C         140.3840  144.7456  161.2084 C.3     1  UNL1        0.1340
      9 C         143.0497  138.7347  166.3912 C.3     1  UNL1        0.0521
     10 C         143.0394  139.8846  165.4281 C.ar    1  UNL1        0.0593
     11 C         142.5462  139.6841  164.0257 C.ar    1  UNL1        0.0147
     12 C         142.5358  140.8340  163.0626 C.ar    1  UNL1        0.0028
     13 C         143.0187  142.1845  163.5019 C.ar    1  UNL1        0.0206
     14 C         143.0085  143.3345  162.5388 C.ar    1  UNL1        0.0374
     15 C         143.4914  144.6850  162.9781 C.ar    1  UNL1        0.0031
     16 C         143.9846  144.8855  164.3804 C.ar    1  UNL1        0.0016
     17 C         143.9949  143.7356  165.3435 C.ar    1  UNL1        0.0191
     18 C         143.5120  142.3851  164.9042 C.ar    1  UNL1        0.0810
     19 N         143.5223  141.2351  165.8673 N.ar    1  UNL1       -0.2497
     20 C         138.3131  141.8335  158.0462 C.3     1  UNL1        0.0135
     21 C         138.6756  140.5776  158.7821 C.3     1  UNL1        0.0182
     22 C         137.7789  140.0584  159.8666 C.3     1  UNL1        0.0721
     23 N         138.1816  140.1998  161.3046 N.3     1  UNL1       -0.2721
     24 C         138.1379  138.9411  162.1194 C.3     1  UNL1        0.0768
     25 C         138.4766  138.7529  163.5686 C.3     1  UNL1        0.0434
     26 C         138.9425  139.7768  164.5607 C.ar    1  UNL1       -0.0225
     27 C         139.1701  139.1666  165.9120 C.ar    1  UNL1        0.0178
     28 C         139.6401  140.0215  167.0514 C.ar    1  UNL1        0.1187
     29 N         139.9482  139.7032  168.4845 N.ar    1  UNL1       -0.2121
     30 C         140.3810  140.9715  169.1583 C.ar    1  UNL1        0.2062
     31 C         140.7837  141.1128  170.5964 C.3     1  UNL1        0.0950
     32 O         140.3404  142.0736  168.1417 O.2     1  UNL1       -0.4379
     33 C         139.8825  141.4866  166.8396 C.ar    1  UNL1        0.1701
     34 C         139.6550  142.0967  165.4883 C.ar    1  UNL1        0.0664
     35 BR        139.8974  143.5617  165.2764 Br      1  UNL1       -0.0461
     36 C         139.1850  141.2418  164.3489 C.ar    1  UNL1       -0.0154
     37 C         139.0213  142.0448  163.0925 C.3     1  UNL1        0.0439
     38 C         138.5747  141.5810  161.7377 C.3     1  UNL1        0.0768
@<TRIPOS>BOND
     1     9    10    1
     2    10    11   ar
     3    11    12   ar
     4    12    13   ar
     5    13    14   ar
     6    14     3    1
     7     3     4   ar
     8     4     5   ar
     9     5     6   ar
    10     6     2    1
    11     2     1    1
    12     1    20    1
    13    20    21    1
    14    21    22    1
    15    22    23    1
    16    23    24    1
    17    24    25    1
    18    25    26    1
    19    26    27   ar
    20    27    28   ar
    21    28    29   ar
    22    29    30   ar
    23    30    31    1
    24    30    32   ar
    25    32    33   ar
    26    33    34   ar
    27    34    35    1
    28    34    36   ar
    29    36    37    1
    30    37    38    1
    31     6     7   ar
    32     7     8    1
    33    14    15   ar
    34    15    16   ar
    35    16    17   ar
    36    17    18   ar
    37    18    19   ar
    38    19    10   ar
    39    18    13   ar
    40     7     3   ar
    41    38    23    1
    42    36    26   ar
    43    33    28   ar
@<TRIPOS>MOLECULE
*****
 38 43 0 0 0
SMALL
GASTEIGER

@<TRIPOS>ATOM
      1 C         142.9935  139.9892  157.8772 C.3     1  UNL1        0.0652
      2 S         142.2789  138.7518  158.3337 S.3     1  UNL1       -0.0757
      3 C         141.1426  138.4971  162.0365 C.ar    1  UNL1        0.1669
      4 N         142.4192  137.7102  162.0702 N.ar    1  UNL1       -0.1282
      5 N         143.0002  137.7098  160.6873 N.ar    1  UNL1       -0.1221
      6 C         142.0827  138.4965  159.7988 C.ar    1  UNL1        0.1932
      7 N         140.9347  138.9831  160.6326 N.ar    1  UNL1       -0.2884
      8 C         139.7812  139.8104  160.1479 C.3     1  UNL1        0.1340
      9 C         139.2347  144.3737  165.0489 C.3     1  UNL1        0.0521
     10 C         139.4844  142.9686  164.5871 C.ar    1  UNL1        0.0593
     11 C         140.3935  142.7125  163.4217 C.ar    1  UNL1        0.0147
     12 C         140.6432  141.3074  162.9599 C.ar    1  UNL1        0.0028
     13 C         139.9839  140.1583  163.6635 C.ar    1  UNL1        0.0206
     14 C         140.2336  138.7531  163.2018 C.ar    1  UNL1        0.0374
     15 C         139.5743  137.6041  163.9054 C.ar    1  UNL1        0.0031
     16 C         138.6653  137.8603  165.0707 C.ar    1  UNL1        0.0016
     17 C         138.4155  139.2654  165.5325 C.ar    1  UNL1        0.0191
     18 C         139.0748  140.4144  164.8289 C.ar    1  UNL1        0.0810
     19 N         138.8251  141.8196  165.2907 N.ar    1  UNL1       -0.2497
     20 C         144.0971  140.5687  158.7115 C.3     1  UNL1        0.0135
     21 C         143.9457  141.9356  159.3106 C.3     1  UNL1        0.0182
     22 C         144.8629  142.3774  160.4122 C.3     1  UNL1        0.0721
     23 N         144.4710  142.1659  161.8445 N.3     1  UNL1       -0.2721
     24 C         144.3034  143.4110  162.6641 C.3     1  UNL1        0.0768
     25 C         143.9219  143.5350  164.1095 C.3     1  UNL1        0.0434
     26 C         143.6139  142.4446  165.0922 C.ar    1  UNL1       -0.0225
     27 C         143.2758  143.0033  166.4427 C.ar    1  UNL1        0.0178
     28 C         142.9351  142.0783  167.5732 C.ar    1  UNL1        0.1187
     29 N         142.5632  142.3356  169.0034 N.ar    1  UNL1       -0.2121
     30 C         142.3307  141.0109  169.6675 C.ar    1  UNL1        0.2062
     31 C         141.9388  140.7995  171.0999 C.3     1  UNL1        0.0950
     32 O         142.5589  139.9348  168.6478 O.2     1  UNL1       -0.4379
     33 C         142.9324  140.5944  167.3535 C.ar    1  UNL1        0.1701
     34 C         143.2705  140.0357  166.0031 C.ar    1  UNL1        0.0664
     35 BR        143.2679  138.5519  165.7833 Br      1  UNL1       -0.0461
     36 C         143.6112  140.9607  164.8725 C.ar    1  UNL1       -0.0154
     37 C         143.9159  140.2009  163.6156 C.3     1  UNL1        0.0439
     38 C         144.2986  140.7374  162.2680 C.3     1  UNL1        0.0768
@<TRIPOS>BOND
     1     9    10    1
     2    10    11   ar
     3    11    12   ar
     4    12    13   ar
     5    13    14   ar
     6    14     3    1
     7     3     4   ar
     8     4     5   ar
     9     5     6   ar
    10     6     2    1
    11     2     1    1
    12     1    20    1
    13    20    21    1
    14    21    22    1
    15    22    23    1
    16    23    24    1
    17    24    25    1
    18    25    26    1
    19    26    27   ar
    20    27    28   ar
    21    28    29   ar
    22    29    30   ar
    23    30    31    1
    24    30    32   ar
    25    32    33   ar
    26    33    34   ar
    27    34    35    1
    28    34    36   ar
    29    36    37    1
    30    37    38    1
    31     6     7   ar
    32     7     8    1
    33    14    15   ar
    34    15    16   ar
    35    16    17   ar
    36    17    18   ar
    37    18    19   ar
    38    19    10   ar
    39    18    13   ar
    40     7     3   ar
    41    38    23    1
    42    36    26   ar
    43    33    28   ar
