@<TRIPOS>MOLECULE
*****
 33 36 0 0 0
SMALL
GASTEIGER

@<TRIPOS>ATOM
      1 N         140.4046  141.7008  167.7107 N.ar    1  UNL1       -0.2399
      2 N         140.2508  142.0112  166.2513 N.ar    1  UNL1       -0.1681
      3 C         139.4407  140.9141  165.6268 C.ar    1  UNL1        0.1094
      4 C         139.0937  139.9255  166.7003 C.ar    1  UNL1        0.1032
      5 C         139.6894  140.4117  167.9883 C.ar    1  UNL1        0.1280
      6 N         139.5879  139.7288  169.3199 N.pl3   1  UNL1       -0.3427
      7 H         139.0941  138.8811  169.4020 H       1  UNL1        0.1437
      8 H         140.0150  140.1283  170.1119 H       1  UNL1        0.1437
      9 C         139.0466  140.8217  164.1824 C.ar    1  UNL1        0.0387
     10 C         137.7359  141.3896  163.7248 C.ar    1  UNL1        0.1003
     11 N         137.3420  141.2972  162.2804 N.ar    1  UNL1       -0.2437
     12 C         138.2587  140.6369  161.2937 C.ar    1  UNL1        0.0843
     13 C         137.8647  140.5445  159.8493 C.ar    1  UNL1        0.0560
     14 C         138.7814  139.8842  158.8626 C.ar    1  UNL1        0.1399
     15 C         140.0922  139.3162  159.3203 C.ar    1  UNL1        0.0370
     16 C         140.4861  139.4086  160.7647 C.ar    1  UNL1        0.0046
     17 C         139.5694  140.0690  161.7514 C.ar    1  UNL1        0.0179
     18 C         139.9634  140.1614  163.1957 C.ar    1  UNL1        0.0046
     19 O         138.3875  139.7918  157.4182 O.3     1  UNL1       -0.4791
     20 C         137.3637  140.7344  156.8583 C.3     1  UNL1        0.1661
     21 C         136.9888  142.0987  156.3602 C.3     1  UNL1        0.0472
     22 C         135.9653  141.0025  156.3865 C.3     1  UNL1        0.0472
     23 C         138.2919  138.6711  166.5180 C.2     1  UNL1        0.2470
     24 N         138.6211  137.7262  165.4006 N.am    1  UNL1       -0.3252
     25 O         137.1607  138.3615  167.4533 O.2     1  UNL1       -0.2702
     26 H         139.3635  137.9293  164.7867 H       1  UNL1        0.1453
     27 H         138.0947  136.9028  165.2810 H       1  UNL1        0.1453
     28 C         142.6279  142.3805  168.8704 C.3     1  UNL1        0.0265
     29 C         141.1437  142.5332  168.7161 C.3     1  UNL1        0.1091
     30 C         140.3986  143.5183  169.5672 C.3     1  UNL1        0.0561
     31 C         139.7127  143.0594  170.8197 C.3     1  UNL1        0.1392
     32 O         140.4722  142.2703  171.8446 O.3     1  UNL1       -0.3819
     33 H         140.7210  141.4103  171.4713 H       1  UNL1        0.2104
@<TRIPOS>BOND
     1    28    29    1
     2    29    30    1
     3    30    31    1
     4    31    32    1
     5    29     1    1
     6     1     2   ar
     7     2     3   ar
     8     3     9    1
     9     9    10   ar
    10    10    11   ar
    11    11    12   ar
    12    12    13   ar
    13    13    14   ar
    14    14    19    1
    15    19    20    1
    16    20    21    1
    17    21    22    1
    18    14    15   ar
    19    15    16   ar
    20    16    17   ar
    21    17    18   ar
    22     3     4   ar
    23     4    23    1
    24    23    24   am
    25    23    25    2
    26     4     5   ar
    27     5     6    1
    28     5     1   ar
    29    18     9   ar
    30    17    12   ar
    31    22    20    1
    32    32    33    1
    33    24    26    1
    34    24    27    1
    35     6     7    1
    36     6     8    1
@<TRIPOS>MOLECULE
*****
 33 36 0 0 0
SMALL
GASTEIGER

@<TRIPOS>ATOM
      1 N         140.7255  141.5344  168.1790 N.ar    1  UNL1       -0.2399
      2 N         141.3204  141.6682  166.8085 N.ar    1  UNL1       -0.1681
      3 C         140.6693  140.6508  165.9192 C.ar    1  UNL1        0.1094
      4 C         139.6720  139.8882  166.7400 C.ar    1  UNL1        0.1032
      5 C         139.7067  140.4343  168.1367 C.ar    1  UNL1        0.1280
      6 N         138.8697  139.9629  169.2887 N.pl3   1  UNL1       -0.3427
      7 H         138.2249  139.2300  169.1613 H       1  UNL1        0.1437
      8 H         138.9651  140.3866  170.1723 H       1  UNL1        0.1437
      9 C         140.9638  140.4341  164.4644 C.ar    1  UNL1        0.0387
     10 C         140.0534  141.0106  163.4209 C.ar    1  UNL1        0.1003
     11 N         140.3479  140.7939  161.9662 N.ar    1  UNL1       -0.2437
     12 C         141.5528  140.0007  161.5550 C.ar    1  UNL1        0.0843
     13 C         141.8473  139.7839  160.1002 C.ar    1  UNL1        0.0560
     14 C         143.0522  138.9907  159.6889 C.ar    1  UNL1        0.1399
     15 C         143.9626  138.4143  160.7325 C.ar    1  UNL1        0.0370
     16 C         143.6680  138.6310  162.1872 C.ar    1  UNL1        0.0046
     17 C         142.4632  139.4242  162.5984 C.ar    1  UNL1        0.0179
     18 C         142.1686  139.6409  164.0532 C.ar    1  UNL1        0.0046
     19 O         143.3467  138.7740  158.2342 O.3     1  UNL1       -0.4791
     20 C         142.7291  137.6157  157.5084 C.3     1  UNL1        0.1661
     21 C         142.8011  136.1970  157.0264 C.3     1  UNL1        0.0472
     22 C         141.5873  137.0280  156.7332 C.3     1  UNL1        0.0472
     23 C         138.7940  138.7749  166.2503 C.2     1  UNL1        0.2470
     24 N         139.3072  137.8127  165.2204 N.am    1  UNL1       -0.3252
     25 O         137.4028  138.6240  166.7904 O.2     1  UNL1       -0.2702
     26 H         140.2203  137.9117  164.8659 H       1  UNL1        0.1453
     27 H         138.7309  137.0820  164.8990 H       1  UNL1        0.1453
     28 C         140.3817  143.6551  169.6400 C.3     1  UNL1        0.0265
     29 C         141.0861  142.3564  169.3808 C.3     1  UNL1        0.1091
     30 C         142.1511  141.8796  170.3234 C.3     1  UNL1        0.0561
     31 C         141.9010  140.6848  171.1951 C.3     1  UNL1        0.1392
     32 O         140.6021  140.5541  171.9339 O.3     1  UNL1       -0.3819
     33 H         140.5364  141.2570  172.5991 H       1  UNL1        0.2104
@<TRIPOS>BOND
     1    28    29    1
     2    29    30    1
     3    30    31    1
     4    31    32    1
     5    29     1    1
     6     1     2   ar
     7     2     3   ar
     8     3     9    1
     9     9    10   ar
    10    10    11   ar
    11    11    12   ar
    12    12    13   ar
    13    13    14   ar
    14    14    19    1
    15    19    20    1
    16    20    21    1
    17    21    22    1
    18    14    15   ar
    19    15    16   ar
    20    16    17   ar
    21    17    18   ar
    22     3     4   ar
    23     4    23    1
    24    23    24   am
    25    23    25    2
    26     4     5   ar
    27     5     6    1
    28     5     1   ar
    29    18     9   ar
    30    17    12   ar
    31    22    20    1
    32    32    33    1
    33    24    26    1
    34    24    27    1
    35     6     7    1
    36     6     8    1
@<TRIPOS>MOLECULE
*****
 33 36 0 0 0
SMALL
GASTEIGER

@<TRIPOS>ATOM
      1 N         140.1742  141.2970  166.9858 N.ar    1  UNL1       -0.2399
      2 N         140.5726  142.3872  166.0357 N.ar    1  UNL1       -0.1681
      3 C         139.8309  142.1749  164.7492 C.ar    1  UNL1        0.1094
      4 C         138.9741  140.9535  164.9043 C.ar    1  UNL1        0.1032
      5 C         139.1863  140.4109  166.2865 C.ar    1  UNL1        0.1280
      6 N         138.5264  139.1956  166.8675 N.pl3   1  UNL1       -0.3427
      7 H         137.8883  138.6760  166.3270 H       1  UNL1        0.1437
      8 H         138.7315  138.9174  167.7894 H       1  UNL1        0.1437
      9 C         139.9288  143.0334  163.5230 C.ar    1  UNL1        0.0387
     10 C         139.0247  144.2197  163.3639 C.ar    1  UNL1        0.1003
     11 N         139.1227  145.0781  162.1377 N.ar    1  UNL1       -0.2437
     12 C         140.1247  144.7502  161.0707 C.ar    1  UNL1        0.0843
     13 C         140.2226  145.6086  159.8445 C.ar    1  UNL1        0.0560
     14 C         141.2246  145.2808  158.7775 C.ar    1  UNL1        0.1399
     15 C         142.1287  144.0944  158.9367 C.ar    1  UNL1        0.0370
     16 C         142.0308  143.2360  160.1629 C.ar    1  UNL1        0.0046
     17 C         141.0287  143.5639  161.2299 C.ar    1  UNL1        0.0179
     18 C         140.9308  142.7055  162.4560 C.ar    1  UNL1        0.0046
     19 O         141.3226  146.1392  157.5513 O.3     1  UNL1       -0.4791
     20 C         140.1118  146.3646  156.6949 C.3     1  UNL1        0.1661
     21 C         139.0650  145.8352  155.7601 C.3     1  UNL1        0.0472
     22 C         139.0616  147.2846  156.1465 C.3     1  UNL1        0.0472
     23 C         138.0649  140.3760  163.8604 C.2     1  UNL1        0.2470
     24 N         136.8927  141.1697  163.3645 N.am    1  UNL1       -0.3252
     25 O         138.3278  139.0046  163.3124 O.2     1  UNL1       -0.2702
     26 H         136.7201  142.0697  163.7242 H       1  UNL1        0.1453
     27 H         136.2959  140.7906  162.6794 H       1  UNL1        0.1453
     28 C         142.1503  141.0545  168.6550 C.3     1  UNL1        0.0265
     29 C         140.6757  141.1234  168.3888 C.3     1  UNL1        0.1091
     30 C         139.7026  141.0187  169.5254 C.3     1  UNL1        0.0561
     31 C         139.9976  140.1132  170.6843 C.3     1  UNL1        0.1392
     32 O         140.7003  140.6503  171.8958 O.3     1  UNL1       -0.3819
     33 H         141.6044  140.9085  171.6573 H       1  UNL1        0.2104
@<TRIPOS>BOND
     1    28    29    1
     2    29    30    1
     3    30    31    1
     4    31    32    1
     5    29     1    1
     6     1     2   ar
     7     2     3   ar
     8     3     9    1
     9     9    10   ar
    10    10    11   ar
    11    11    12   ar
    12    12    13   ar
    13    13    14   ar
    14    14    19    1
    15    19    20    1
    16    20    21    1
    17    21    22    1
    18    14    15   ar
    19    15    16   ar
    20    16    17   ar
    21    17    18   ar
    22     3     4   ar
    23     4    23    1
    24    23    24   am
    25    23    25    2
    26     4     5   ar
    27     5     6    1
    28     5     1   ar
    29    18     9   ar
    30    17    12   ar
    31    22    20    1
    32    32    33    1
    33    24    26    1
    34    24    27    1
    35     6     7    1
    36     6     8    1
@<TRIPOS>MOLECULE
*****
 33 36 0 0 0
SMALL
GASTEIGER

@<TRIPOS>ATOM
      1 N         140.1148  140.5151  167.5137 N.ar    1  UNL1       -0.2399
      2 N         140.8783  141.3651  166.5419 N.ar    1  UNL1       -0.1681
      3 C         140.3277  141.1095  165.1702 C.ar    1  UNL1        0.1094
      4 C         139.2238  140.1015  165.2943 C.ar    1  UNL1        0.1032
      5 C         139.0922  139.7341  166.7426 C.ar    1  UNL1        0.1280
      6 N         138.1105  138.7572  167.3187 N.pl3   1  UNL1       -0.3427
      7 H         137.4753  138.2914  166.7281 H       1  UNL1        0.1437
      8 H         138.1013  138.5819  168.2874 H       1  UNL1        0.1437
      9 C         140.7983  141.7496  163.8979 C.ar    1  UNL1        0.0387
     10 C         141.9391  141.1473  163.1326 C.ar    1  UNL1        0.1003
     11 N         142.4097  141.7874  161.8603 N.ar    1  UNL1       -0.2437
     12 C         141.7395  143.0299  161.3533 C.ar    1  UNL1        0.0843
     13 C         142.2101  143.6700  160.0809 C.ar    1  UNL1        0.0560
     14 C         141.5399  144.9125  159.5739 C.ar    1  UNL1        0.1399
     15 C         140.3990  145.5148  160.3393 C.ar    1  UNL1        0.0370
     16 C         139.9285  144.8747  161.6116 C.ar    1  UNL1        0.0046
     17 C         140.5987  143.6322  162.1186 C.ar    1  UNL1        0.0179
     18 C         140.1281  142.9921  163.3909 C.ar    1  UNL1        0.0046
     19 O         142.0105  145.5526  158.3016 O.3     1  UNL1       -0.4791
     20 C         141.0244  145.8916  157.2232 C.3     1  UNL1        0.1661
     21 C         139.7975  146.6250  156.7687 C.3     1  UNL1        0.0472
     22 C         140.5436  145.7452  155.8100 C.3     1  UNL1        0.0472
     23 C         138.3968  139.5566  164.1678 C.2     1  UNL1        0.2470
     24 N         137.3505  140.4155  163.5217 N.am    1  UNL1       -0.3252
     25 O         138.6160  138.1525  163.6874 O.2     1  UNL1       -0.2702
     26 H         137.2066  141.3370  163.8369 H       1  UNL1        0.1453
     27 H         136.8077  140.0577  162.7823 H       1  UNL1        0.1453
     28 C         141.3649  139.5257  169.5652 C.3     1  UNL1        0.0265
     29 C         140.3351  140.4563  168.9963 C.3     1  UNL1        0.1091
     30 C         139.5255  141.3280  169.9099 C.3     1  UNL1        0.0561
     31 C         140.2046  142.3693  170.7493 C.3     1  UNL1        0.1392
     32 O         140.4193  142.1287  172.2143 O.3     1  UNL1       -0.3819
     33 H         139.5612  142.0911  172.6649 H       1  UNL1        0.2104
@<TRIPOS>BOND
     1    28    29    1
     2    29    30    1
     3    30    31    1
     4    31    32    1
     5    29     1    1
     6     1     2   ar
     7     2     3   ar
     8     3     9    1
     9     9    10   ar
    10    10    11   ar
    11    11    12   ar
    12    12    13   ar
    13    13    14   ar
    14    14    19    1
    15    19    20    1
    16    20    21    1
    17    21    22    1
    18    14    15   ar
    19    15    16   ar
    20    16    17   ar
    21    17    18   ar
    22     3     4   ar
    23     4    23    1
    24    23    24   am
    25    23    25    2
    26     4     5   ar
    27     5     6    1
    28     5     1   ar
    29    18     9   ar
    30    17    12   ar
    31    22    20    1
    32    32    33    1
    33    24    26    1
    34    24    27    1
    35     6     7    1
    36     6     8    1
@<TRIPOS>MOLECULE
*****
 33 36 0 0 0
SMALL
GASTEIGER

@<TRIPOS>ATOM
      1 N         141.4072  140.0092  168.6134 N.ar    1  UNL1       -0.2399
      2 N         142.1398  139.6782  167.3470 N.ar    1  UNL1       -0.1681
      3 C         141.1215  139.3778  166.2874 C.ar    1  UNL1        0.1094
      4 C         139.7595  139.5231  166.8989 C.ar    1  UNL1        0.1032
      5 C         139.9360  139.9133  168.3364 C.ar    1  UNL1        0.1280
      6 N         138.8348  140.1637  169.3237 N.pl3   1  UNL1       -0.3427
      7 H         137.8947  140.0751  169.0454 H       1  UNL1        0.1437
      8 H         139.0523  140.4166  170.2499 H       1  UNL1        0.1437
      9 C         141.4138  138.9986  164.8658 C.ar    1  UNL1        0.0387
     10 C         140.9547  137.6737  164.3334 C.ar    1  UNL1        0.1003
     11 N         141.2470  137.2946  162.9118 N.ar    1  UNL1       -0.2437
     12 C         141.9986  138.2404  162.0228 C.ar    1  UNL1        0.0843
     13 C         142.2910  137.8613  160.6012 C.ar    1  UNL1        0.0560
     14 C         143.0426  138.8071  159.7121 C.ar    1  UNL1        0.1399
     15 C         143.5018  140.1322  160.2446 C.ar    1  UNL1        0.0370
     16 C         143.2094  140.5113  161.6661 C.ar    1  UNL1        0.0046
     17 C         142.4578  139.5654  162.5552 C.ar    1  UNL1        0.0179
     18 C         142.1654  139.9445  163.9767 C.ar    1  UNL1        0.0046
     19 O         143.3350  138.4280  158.2906 O.3     1  UNL1       -0.4791
     20 C         142.3200  137.6624  157.4946 C.3     1  UNL1        0.1661
     21 C         140.9305  137.5307  156.9449 C.3     1  UNL1        0.0472
     22 C         141.9514  136.4678  156.6656 C.3     1  UNL1        0.0472
     23 C         138.4507  139.3148  166.1962 C.2     1  UNL1        0.2470
     24 N         138.1843  139.9991  164.8883 N.am    1  UNL1       -0.3252
     25 O         137.4083  138.4220  166.8016 O.2     1  UNL1       -0.2702
     26 H         138.8684  140.5851  164.4910 H       1  UNL1        0.1453
     27 H         137.3253  139.8623  164.4272 H       1  UNL1        0.1453
     28 C         142.9154  139.3857  170.6349 C.3     1  UNL1        0.0265
     29 C         142.0353  140.3723  169.9262 C.3     1  UNL1        0.1091
     30 C         141.7834  141.7219  170.5304 C.3     1  UNL1        0.0561
     31 C         142.5568  142.9144  170.0509 C.3     1  UNL1        0.1392
     32 O         143.3476  143.7365  171.0249 O.3     1  UNL1       -0.3819
     33 H         142.7431  144.1736  171.6448 H       1  UNL1        0.2104
@<TRIPOS>BOND
     1    28    29    1
     2    29    30    1
     3    30    31    1
     4    31    32    1
     5    29     1    1
     6     1     2   ar
     7     2     3   ar
     8     3     9    1
     9     9    10   ar
    10    10    11   ar
    11    11    12   ar
    12    12    13   ar
    13    13    14   ar
    14    14    19    1
    15    19    20    1
    16    20    21    1
    17    21    22    1
    18    14    15   ar
    19    15    16   ar
    20    16    17   ar
    21    17    18   ar
    22     3     4   ar
    23     4    23    1
    24    23    24   am
    25    23    25    2
    26     4     5   ar
    27     5     6    1
    28     5     1   ar
    29    18     9   ar
    30    17    12   ar
    31    22    20    1
    32    32    33    1
    33    24    26    1
    34    24    27    1
    35     6     7    1
    36     6     8    1
@<TRIPOS>MOLECULE
*****
 33 36 0 0 0
SMALL
GASTEIGER

@<TRIPOS>ATOM
      1 N         140.5603  140.3062  168.2223 N.ar    1  UNL1       -0.2399
      2 N         139.8478  140.1672  166.9098 N.ar    1  UNL1       -0.1681
      3 C         140.7920  139.5279  165.9352 C.ar    1  UNL1        0.1094
      4 C         142.0881  139.2718  166.6454 C.ar    1  UNL1        0.1032
      5 C         141.9450  139.7529  168.0589 C.ar    1  UNL1        0.1280
      6 N         143.0011  139.6913  169.1224 N.pl3   1  UNL1       -0.3427
      7 H         143.8843  139.3078  168.9174 H       1  UNL1        0.1437
      8 H         142.8110  140.0345  170.0253 H       1  UNL1        0.1437
      9 C         140.4925  139.2019  164.5019 C.ar    1  UNL1        0.0387
     10 C         140.2750  137.7771  164.0865 C.ar    1  UNL1        0.1003
     11 N         139.9756  137.4511  162.6533 N.ar    1  UNL1       -0.2437
     12 C         139.8937  138.5500  161.6355 C.ar    1  UNL1        0.0843
     13 C         139.5943  138.2240  160.2023 C.ar    1  UNL1        0.0560
     14 C         139.5124  139.3228  159.1845 C.ar    1  UNL1        0.1399
     15 C         139.7300  140.7477  159.6000 C.ar    1  UNL1        0.0370
     16 C         140.0294  141.0736  161.0332 C.ar    1  UNL1        0.0046
     17 C         140.1113  139.9748  162.0510 C.ar    1  UNL1        0.0179
     18 C         140.4107  140.3007  163.4841 C.ar    1  UNL1        0.0046
     19 O         139.2130  138.9969  157.7513 O.3     1  UNL1       -0.4791
     20 C         138.4901  139.9908  156.8913 C.3     1  UNL1        0.1661
     21 C         137.4790  141.0891  156.7447 C.3     1  UNL1        0.0472
     22 C         138.2492  140.6141  155.5484 C.3     1  UNL1        0.0472
     23 C         143.3124  138.6448  166.0472 C.2     1  UNL1        0.2470
     24 N         143.6984  138.9550  164.6313 N.am    1  UNL1       -0.3252
     25 O         144.1508  137.7075  166.8650 O.2     1  UNL1       -0.2702
     26 H         143.1482  139.5701  164.0946 H       1  UNL1        0.1453
     27 H         144.5020  138.5434  164.2387 H       1  UNL1        0.1453
     28 C         138.8053  140.2511  170.1373 C.3     1  UNL1        0.0265
     29 C         139.9887  140.8952  169.4778 C.3     1  UNL1        0.1091
     30 C         140.6005  142.1283  170.0739 C.3     1  UNL1        0.0561
     31 C         141.4291  142.0271  171.3202 C.3     1  UNL1        0.1392
     32 O         142.0252  140.7098  171.7195 O.3     1  UNL1       -0.3819
     33 H         141.3151  140.0889  171.9458 H       1  UNL1        0.2104
@<TRIPOS>BOND
     1    28    29    1
     2    29    30    1
     3    30    31    1
     4    31    32    1
     5    29     1    1
     6     1     2   ar
     7     2     3   ar
     8     3     9    1
     9     9    10   ar
    10    10    11   ar
    11    11    12   ar
    12    12    13   ar
    13    13    14   ar
    14    14    19    1
    15    19    20    1
    16    20    21    1
    17    21    22    1
    18    14    15   ar
    19    15    16   ar
    20    16    17   ar
    21    17    18   ar
    22     3     4   ar
    23     4    23    1
    24    23    24   am
    25    23    25    2
    26     4     5   ar
    27     5     6    1
    28     5     1   ar
    29    18     9   ar
    30    17    12   ar
    31    22    20    1
    32    32    33    1
    33    24    26    1
    34    24    27    1
    35     6     7    1
    36     6     8    1
@<TRIPOS>MOLECULE
*****
 33 36 0 0 0
SMALL
GASTEIGER

@<TRIPOS>ATOM
      1 N         140.7637  140.5670  168.2904 N.ar    1  UNL1       -0.2399
      2 N         140.3031  140.8812  166.8979 N.ar    1  UNL1       -0.1681
      3 C         141.2630  140.2441  165.9373 C.ar    1  UNL1        0.1094
      4 C         142.3169  139.5362  166.7361 C.ar    1  UNL1        0.1032
      5 C         142.0083  139.7357  168.1904 C.ar    1  UNL1        0.1280
      6 N         142.8046  139.1984  169.3425 N.pl3   1  UNL1       -0.3427
      7 H         143.6115  138.6599  169.1746 H       1  UNL1        0.1437
      8 H         142.5203  139.3841  170.2666 H       1  UNL1        0.1437
      9 C         141.1830  140.3044  164.4406 C.ar    1  UNL1        0.0387
     10 C         141.8277  141.4385  163.7002 C.ar    1  UNL1        0.1003
     11 N         141.7477  141.4987  162.2036 N.ar    1  UNL1       -0.2437
     12 C         141.0230  140.4249  161.4474 C.ar    1  UNL1        0.0843
     13 C         140.9430  140.4852  159.9507 C.ar    1  UNL1        0.0560
     14 C         140.2184  139.4114  159.1945 C.ar    1  UNL1        0.1399
     15 C         139.5737  138.2773  159.9350 C.ar    1  UNL1        0.0370
     16 C         139.6537  138.2171  161.4316 C.ar    1  UNL1        0.0046
     17 C         140.3784  139.2909  162.1878 C.ar    1  UNL1        0.0179
     18 C         140.4583  139.2306  163.6844 C.ar    1  UNL1        0.0046
     19 O         140.1384  139.4717  157.6979 O.3     1  UNL1       -0.4791
     20 C         140.1429  138.2046  156.8949 C.3     1  UNL1        0.1661
     21 C         140.8483  136.9671  156.4248 C.3     1  UNL1        0.0472
     22 C         139.4454  137.2477  155.9743 C.3     1  UNL1        0.0472
     23 C         143.4759  138.7643  166.1786 C.2     1  UNL1        0.2470
     24 N         143.9987  139.0809  164.8089 N.am    1  UNL1       -0.3252
     25 O         144.1121  137.6755  166.9910 O.2     1  UNL1       -0.2702
     26 H         143.5811  139.7955  164.2757 H       1  UNL1        0.1453
     27 H         144.7593  138.5742  164.4430 H       1  UNL1        0.1453
     28 C         138.8835  140.2806  170.0604 C.3     1  UNL1        0.0265
     29 C         140.0968  141.0069  169.5600 C.3     1  UNL1        0.1091
     30 C         140.6433  142.1729  170.3292 C.3     1  UNL1        0.0561
     31 C         141.8976  142.0170  171.1369 C.3     1  UNL1        0.1392
     32 O         142.1262  140.7666  171.9333 O.3     1  UNL1       -0.3819
     33 H         141.4678  140.7107  172.6434 H       1  UNL1        0.2104
@<TRIPOS>BOND
     1    28    29    1
     2    29    30    1
     3    30    31    1
     4    31    32    1
     5    29     1    1
     6     1     2   ar
     7     2     3   ar
     8     3     9    1
     9     9    10   ar
    10    10    11   ar
    11    11    12   ar
    12    12    13   ar
    13    13    14   ar
    14    14    19    1
    15    19    20    1
    16    20    21    1
    17    21    22    1
    18    14    15   ar
    19    15    16   ar
    20    16    17   ar
    21    17    18   ar
    22     3     4   ar
    23     4    23    1
    24    23    24   am
    25    23    25    2
    26     4     5   ar
    27     5     6    1
    28     5     1   ar
    29    18     9   ar
    30    17    12   ar
    31    22    20    1
    32    32    33    1
    33    24    26    1
    34    24    27    1
    35     6     7    1
    36     6     8    1
@<TRIPOS>MOLECULE
*****
 33 36 0 0 0
SMALL
GASTEIGER

@<TRIPOS>ATOM
      1 N         144.7380  142.3757  158.1319 N.ar    1  UNL1       -0.2399
      2 N         145.0251  142.1718  159.5900 N.ar    1  UNL1       -0.1681
      3 C         143.9013  142.7827  160.3736 C.ar    1  UNL1        0.1094
      4 C         142.9196  143.3641  159.3998 C.ar    1  UNL1        0.1032
      5 C         143.4367  143.1125  158.0144 C.ar    1  UNL1        0.1280
      6 N         142.7696  143.5254  156.7359 N.pl3   1  UNL1       -0.3427
      7 H         141.9119  144.0081  156.7617 H       1  UNL1        0.1437
      8 H         143.1894  143.3136  155.8709 H       1  UNL1        0.1437
      9 C         143.7805  142.8078  161.8685 C.ar    1  UNL1        0.0387
     10 C         144.2746  143.9947  162.6411 C.ar    1  UNL1        0.1003
     11 N         144.1538  144.0197  164.1360 N.ar    1  UNL1       -0.2437
     12 C         143.5388  142.8578  164.8583 C.ar    1  UNL1        0.0843
     13 C         143.4179  142.8829  166.3533 C.ar    1  UNL1        0.0560
     14 C         142.8030  141.7209  167.0756 C.ar    1  UNL1        0.1399
     15 C         142.3088  140.5339  166.3029 C.ar    1  UNL1        0.0370
     16 C         142.4297  140.5089  164.8080 C.ar    1  UNL1        0.0046
     17 C         143.0447  141.6708  164.0857 C.ar    1  UNL1        0.0179
     18 C         143.1655  141.6458  162.5908 C.ar    1  UNL1        0.0046
     19 O         142.6821  141.7459  168.5705 O.3     1  UNL1       -0.4791
     20 C         141.4757  142.3616  169.2152 C.3     1  UNL1        0.1661
     21 C         140.7783  143.5592  169.7891 C.3     1  UNL1        0.0472
     22 C         140.0836  142.2302  169.7580 C.3     1  UNL1        0.0472
     23 C         141.6447  144.0726  159.7499 C.2     1  UNL1        0.2470
     24 N         141.6914  145.4286  160.3895 N.am    1  UNL1       -0.3252
     25 O         140.3230  143.4251  159.4603 O.2     1  UNL1       -0.2702
     26 H         142.5589  145.8536  160.5796 H       1  UNL1        0.1453
     27 H         140.8546  145.8935  160.6193 H       1  UNL1        0.1453
     28 C         145.3176  140.6162  156.3103 C.3     1  UNL1        0.0265
     29 C         145.6006  141.9223  156.9916 C.3     1  UNL1        0.1091
     30 C         146.7461  142.7749  156.5327 C.3     1  UNL1        0.0561
     31 C         147.9705  142.9101  157.3887 C.3     1  UNL1        0.1392
     32 O         147.8509  143.4243  158.7927 O.3     1  UNL1       -0.3819
     33 H         147.5626  144.3503  158.7744 H       1  UNL1        0.2104
@<TRIPOS>BOND
     1    28    29    1
     2    29    30    1
     3    30    31    1
     4    31    32    1
     5    29     1    1
     6     1     2   ar
     7     2     3   ar
     8     3     9    1
     9     9    10   ar
    10    10    11   ar
    11    11    12   ar
    12    12    13   ar
    13    13    14   ar
    14    14    19    1
    15    19    20    1
    16    20    21    1
    17    21    22    1
    18    14    15   ar
    19    15    16   ar
    20    16    17   ar
    21    17    18   ar
    22     3     4   ar
    23     4    23    1
    24    23    24   am
    25    23    25    2
    26     4     5   ar
    27     5     6    1
    28     5     1   ar
    29    18     9   ar
    30    17    12   ar
    31    22    20    1
    32    32    33    1
    33    24    26    1
    34    24    27    1
    35     6     7    1
    36     6     8    1
@<TRIPOS>MOLECULE
*****
 33 36 0 0 0
SMALL
GASTEIGER

@<TRIPOS>ATOM
      1 N         141.8548  138.0363  158.5526 N.ar    1  UNL1       -0.2399
      2 N         142.4284  138.2269  159.9254 N.ar    1  UNL1       -0.1681
      3 C         141.2973  138.5330  160.8620 C.ar    1  UNL1        0.1094
      4 C         140.0247  138.5315  160.0680 C.ar    1  UNL1        0.1032
      5 C         140.3692  138.2245  158.6407 C.ar    1  UNL1        0.1280
      6 N         139.3986  138.1235  157.5015 N.pl3   1  UNL1       -0.3427
      7 H         138.4372  138.2644  157.6600 H       1  UNL1        0.1437
      8 H         139.7230  137.9164  156.5953 H       1  UNL1        0.1437
      9 C         141.4178  138.7946  162.3341 C.ar    1  UNL1        0.0387
     10 C         141.5033  137.6463  163.2954 C.ar    1  UNL1        0.1003
     11 N         141.6237  137.9079  164.7674 N.ar    1  UNL1       -0.2437
     12 C         141.6586  139.3179  165.2782 C.ar    1  UNL1        0.0843
     13 C         141.7791  139.5795  166.7504 C.ar    1  UNL1        0.0560
     14 C         141.8140  140.9894  167.2612 C.ar    1  UNL1        0.1399
     15 C         141.7285  142.1377  166.2998 C.ar    1  UNL1        0.0370
     16 C         141.6081  141.8761  164.8277 C.ar    1  UNL1        0.0046
     17 C         141.5731  140.4662  164.3170 C.ar    1  UNL1        0.0179
     18 C         141.4527  140.2045  162.8449 C.ar    1  UNL1        0.0046
     19 O         141.9345  141.2510  168.7332 O.3     1  UNL1       -0.4791
     20 C         140.9795  142.1902  169.4087 C.3     1  UNL1        0.1661
     21 C         140.4812  143.5841  169.6510 C.3     1  UNL1        0.0472
     22 C         139.8239  142.4229  170.3362 C.3     1  UNL1        0.0472
     23 C         138.6491  138.7914  160.6066 C.2     1  UNL1        0.2470
     24 N         138.1188  137.9644  161.7401 N.am    1  UNL1       -0.3252
     25 O         137.8037  139.8783  160.0116 O.2     1  UNL1       -0.2702
     26 H         138.6736  137.2511  162.1306 H       1  UNL1        0.1453
     27 H         137.2159  138.1351  162.0935 H       1  UNL1        0.1453
     28 C         143.0973  138.8191  156.4093 C.3     1  UNL1        0.0265
     29 C         142.6306  137.7140  157.3099 C.3     1  UNL1        0.1091
     30 C         142.9396  136.2866  156.9678 C.3     1  UNL1        0.0561
     31 C         142.0235  135.5170  156.0632 C.3     1  UNL1        0.1392
     32 O         140.5904  135.9347  155.9155 O.3     1  UNL1       -0.3819
     33 H         140.1285  135.8094  156.7592 H       1  UNL1        0.2104
@<TRIPOS>BOND
     1    28    29    1
     2    29    30    1
     3    30    31    1
     4    31    32    1
     5    29     1    1
     6     1     2   ar
     7     2     3   ar
     8     3     9    1
     9     9    10   ar
    10    10    11   ar
    11    11    12   ar
    12    12    13   ar
    13    13    14   ar
    14    14    19    1
    15    19    20    1
    16    20    21    1
    17    21    22    1
    18    14    15   ar
    19    15    16   ar
    20    16    17   ar
    21    17    18   ar
    22     3     4   ar
    23     4    23    1
    24    23    24   am
    25    23    25    2
    26     4     5   ar
    27     5     6    1
    28     5     1   ar
    29    18     9   ar
    30    17    12   ar
    31    22    20    1
    32    32    33    1
    33    24    26    1
    34    24    27    1
    35     6     7    1
    36     6     8    1
