@<TRIPOS>MOLECULE
*****
 37 40 0 0 0
SMALL
GASTEIGER

@<TRIPOS>ATOM
      1 C         142.3153  142.2705  163.7025 C.3     1  UNL1        0.1753
      2 C         142.6492  142.6373  162.2869 C.ar    1  UNL1        0.0090
      3 C         143.7822  142.2404  161.3877 C.ar    1  UNL1       -0.0007
      4 C         143.8542  142.7789  159.9896 C.ar    1  UNL1        0.0156
      5 C         142.7931  143.7145  159.4907 C.ar    1  UNL1        0.0646
      6 C         141.6600  144.1114  160.3899 C.ar    1  UNL1        0.0201
      7 C         141.5881  143.5729  161.7880 C.ar    1  UNL1        0.0529
      8 C         140.5985  143.7842  162.8953 C.2     1  UNL1        0.2496
      9 O         139.3744  144.6487  162.8307 O.2     1  UNL1       -0.2699
     10 N         141.0480  142.9793  164.0786 N.am    1  UNL1       -0.2620
     11 N         142.9683  139.8686  164.4474 N.am    1  UNL1       -0.3059
     12 C         143.1095  141.3555  164.5869 C.2     1  UNL1        0.2448
     13 O         144.0449  141.9272  165.6106 O.2     1  UNL1       -0.2729
     14 H         142.3544  139.4933  163.7755 H       1  UNL1        0.1494
     15 C         144.9832  139.2073  164.4979 C.3     1  UNL1        0.0196
     16 C         143.7625  138.9536  165.3318 C.3     1  UNL1        0.0569
     17 C         142.5416  138.6999  166.1656 C.3     1  UNL1        0.0196
     18 C         144.5566  138.0386  166.2160 C.3     1  UNL1        0.0196
     19 N         142.8651  144.2531  158.0925 N.pl3   1  UNL1       -0.2187
     20 H         143.6316  144.0280  157.5172 H       1  UNL1        0.1734
     21 S         141.7692  145.1344  157.5710 S.O2    1  UNL1        0.0558
     22 C         140.6732  146.0159  157.0493 C.3     1  UNL1        0.1996
     23 O         142.5272  146.3462  158.0260 O.2     1  UNL1       -0.1544
     24 O         141.0112  143.9227  157.1160 O.2     1  UNL1       -0.1544
     25 C         140.3523  142.8975  165.4050 C.3     1  UNL1        0.1212
     26 C         139.6754  141.6248  165.8196 C.ar    1  UNL1       -0.0023
     27 C         138.7926  140.8948  164.8511 C.ar    1  UNL1       -0.0026
     28 C         138.1157  139.6221  165.2658 C.ar    1  UNL1       -0.0003
     29 C         138.3215  139.0794  166.6489 C.ar    1  UNL1       -0.0000
     30 C         139.2042  139.8093  167.6174 C.ar    1  UNL1       -0.0003
     31 C         139.8811  141.0821  167.2028 C.ar    1  UNL1       -0.0024
     32 C         140.7638  141.8121  168.1713 C.ar    1  UNL1       -0.0003
     33 C         142.2095  141.4336  168.3006 C.ar    1  UNL1       -0.0000
     34 C         143.0922  142.1635  169.2690 C.ar    1  UNL1       -0.0000
     35 C         142.5292  143.2721  170.1083 C.ar    1  UNL1       -0.0000
     36 C         141.0835  143.6506  169.9790 C.ar    1  UNL1       -0.0000
     37 C         140.2008  142.9206  169.0104 C.ar    1  UNL1       -0.0000
@<TRIPOS>BOND
     1    15    16    1
     2    16    17    1
     3    16    18    1
     4    16    11    1
     5    11    12   am
     6    12    13    2
     7    12     1    1
     8     1     2    1
     9     2     3   ar
    10     3     4   ar
    11     4     5   ar
    12     5    19    1
    13    19    21    1
    14    21    22    1
    15    21    23    2
    16    21    24    2
    17     5     6   ar
    18     6     7   ar
    19     7     8    1
    20     8     9    2
    21     8    10   am
    22    10    25    1
    23    25    26    1
    24    26    27   ar
    25    27    28   ar
    26    28    29   ar
    27    29    30   ar
    28    30    31   ar
    29    31    32    1
    30    32    33   ar
    31    33    34   ar
    32    34    35   ar
    33    35    36   ar
    34    36    37   ar
    35    10     1    1
    36    31    26   ar
    37    37    32   ar
    38     7     2   ar
    39    11    14    1
    40    19    20    1
@<TRIPOS>MOLECULE
*****
 37 40 0 0 0
SMALL
GASTEIGER

@<TRIPOS>ATOM
      1 C         138.9750  141.6489  164.0013 C.3     1  UNL1        0.1753
      2 C         139.4860  141.8426  165.3982 C.ar    1  UNL1        0.0090
      3 C         140.1007  143.0247  166.0872 C.ar    1  UNL1       -0.0007
      4 C         140.5243  142.9196  167.5223 C.ar    1  UNL1        0.0156
      5 C         140.3331  141.6325  168.2684 C.ar    1  UNL1        0.0646
      6 C         139.7183  140.4504  167.5794 C.ar    1  UNL1        0.0201
      7 C         139.2948  140.5555  166.1443 C.ar    1  UNL1        0.0529
      8 C         138.6656  139.5663  165.2086 C.2     1  UNL1        0.2496
      9 O         138.2985  138.1500  165.5392 O.2     1  UNL1       -0.2699
     10 N         138.4679  140.2421  163.8841 N.am    1  UNL1       -0.2620
     11 N         140.2640  143.2818  162.4448 N.am    1  UNL1       -0.3059
     12 C         138.9716  142.6809  162.9128 C.2     1  UNL1        0.2448
     13 O         137.6760  143.1122  162.2921 O.2     1  UNL1       -0.2729
     14 H         141.1144  142.9988  162.8522 H       1  UNL1        0.1494
     15 C         140.1477  145.3990  162.3856 C.3     1  UNL1        0.0196
     16 C         140.2606  144.3138  161.3563 C.3     1  UNL1        0.0569
     17 C         140.3736  143.2285  160.3270 C.3     1  UNL1        0.0196
     18 C         140.2572  145.3457  160.2678 C.3     1  UNL1        0.0196
     19 N         140.7566  141.5275  169.7036 N.pl3   1  UNL1       -0.2187
     20 H         140.2675  140.9349  170.3191 H       1  UNL1        0.1734
     21 S         141.9253  142.3254  170.2009 S.O2    1  UNL1        0.0558
     22 C         143.0941  143.1234  170.6984 C.3     1  UNL1        0.1996
     23 O         142.8655  141.3443  169.5658 O.2     1  UNL1       -0.1544
     24 O         140.9852  143.3066  170.8361 O.2     1  UNL1       -0.1544
     25 C         137.8684  139.6203  162.6577 C.3     1  UNL1        0.1212
     26 C         138.5885  139.7064  161.3447 C.ar    1  UNL1       -0.0023
     27 C         137.8627  140.1817  160.1210 C.ar    1  UNL1       -0.0026
     28 C         138.5828  140.2678  158.8080 C.ar    1  UNL1       -0.0003
     29 C         140.0287  139.8786  158.7186 C.ar    1  UNL1       -0.0000
     30 C         140.7545  139.4033  159.9423 C.ar    1  UNL1       -0.0003
     31 C         140.0344  139.3172  161.2554 C.ar    1  UNL1       -0.0024
     32 C         140.7602  138.8420  162.4790 C.ar    1  UNL1       -0.0003
     33 C         141.7145  139.7569  163.1877 C.ar    1  UNL1       -0.0000
     34 C         142.4403  139.2816  164.4113 C.ar    1  UNL1       -0.0000
     35 C         142.2118  137.8914  164.9263 C.ar    1  UNL1       -0.0000
     36 C         141.2575  136.9765  164.2176 C.ar    1  UNL1       -0.0000
     37 C         140.5317  137.4518  162.9939 C.ar    1  UNL1       -0.0000
@<TRIPOS>BOND
     1    15    16    1
     2    16    17    1
     3    16    18    1
     4    16    11    1
     5    11    12   am
     6    12    13    2
     7    12     1    1
     8     1     2    1
     9     2     3   ar
    10     3     4   ar
    11     4     5   ar
    12     5    19    1
    13    19    21    1
    14    21    22    1
    15    21    23    2
    16    21    24    2
    17     5     6   ar
    18     6     7   ar
    19     7     8    1
    20     8     9    2
    21     8    10   am
    22    10    25    1
    23    25    26    1
    24    26    27   ar
    25    27    28   ar
    26    28    29   ar
    27    29    30   ar
    28    30    31   ar
    29    31    32    1
    30    32    33   ar
    31    33    34   ar
    32    34    35   ar
    33    35    36   ar
    34    36    37   ar
    35    10     1    1
    36    31    26   ar
    37    37    32   ar
    38     7     2   ar
    39    11    14    1
    40    19    20    1
@<TRIPOS>MOLECULE
*****
 37 40 0 0 0
SMALL
GASTEIGER

@<TRIPOS>ATOM
      1 C         141.3908  139.0099  163.6554 C.3     1  UNL1        0.1753
      2 C         141.0254  139.3430  165.0716 C.ar    1  UNL1        0.0090
      3 C         139.7131  139.6743  165.7182 C.ar    1  UNL1       -0.0007
      4 C         139.6545  139.9699  167.1876 C.ar    1  UNL1        0.0156
      5 C         140.9082  139.9341  168.0104 C.ar    1  UNL1        0.0646
      6 C         142.2205  139.6028  167.3638 C.ar    1  UNL1        0.0201
      7 C         142.2791  139.3073  165.8944 C.ar    1  UNL1        0.0529
      8 C         143.4192  138.9521  164.9867 C.2     1  UNL1        0.2496
      9 O         144.8561  138.8062  165.3917 O.2     1  UNL1       -0.2699
     10 N         142.8702  138.7683  163.6029 N.am    1  UNL1       -0.2620
     11 N         139.6687  140.1467  162.0767 N.am    1  UNL1       -0.3059
     12 C         140.4430  138.9321  162.4954 C.2     1  UNL1        0.2448
     13 O         140.2694  137.6397  161.7540 O.2     1  UNL1       -0.2729
     14 H         139.7826  140.9950  162.5632 H       1  UNL1        0.1494
     15 C         139.7941  140.5862  160.0052 C.3     1  UNL1        0.0196
     16 C         138.7209  140.0689  160.9166 C.3     1  UNL1        0.0569
     17 C         137.6478  139.5516  161.8281 C.3     1  UNL1        0.0196
     18 C         137.7732  139.9911  159.7566 C.3     1  UNL1        0.0196
     19 N         140.8496  140.2297  169.4799 N.pl3   1  UNL1       -0.2187
     20 H         141.1346  139.5483  170.1308 H       1  UNL1        0.1734
     21 S         140.3567  141.5634  169.9575 S.O2    1  UNL1        0.0558
     22 C         139.8638  142.8972  170.4352 C.3     1  UNL1        0.1996
     23 O         139.0981  140.9190  170.4580 O.2     1  UNL1       -0.1544
     24 O         141.6154  142.2078  169.4571 O.2     1  UNL1       -0.1544
     25 C         143.6617  138.4064  162.3812 C.3     1  UNL1        0.1212
     26 C         143.4702  139.1763  161.1083 C.ar    1  UNL1       -0.0023
     27 C         143.1651  138.4505  159.8314 C.ar    1  UNL1       -0.0026
     28 C         142.9737  139.2205  158.5584 C.ar    1  UNL1       -0.0003
     29 C         143.0873  140.7162  158.5622 C.ar    1  UNL1       -0.0000
     30 C         143.3924  141.4419  159.8390 C.ar    1  UNL1       -0.0003
     31 C         143.5839  140.6720  161.1121 C.ar    1  UNL1       -0.0024
     32 C         143.8890  141.3977  162.3888 C.ar    1  UNL1       -0.0003
     33 C         142.8018  142.1402  163.1077 C.ar    1  UNL1       -0.0000
     34 C         143.1069  142.8659  164.3845 C.ar    1  UNL1       -0.0000
     35 C         144.4992  142.8492  164.9424 C.ar    1  UNL1       -0.0000
     36 C         145.5864  142.1068  164.2235 C.ar    1  UNL1       -0.0000
     37 C         145.2812  141.3810  162.9467 C.ar    1  UNL1       -0.0000
@<TRIPOS>BOND
     1    15    16    1
     2    16    17    1
     3    16    18    1
     4    16    11    1
     5    11    12   am
     6    12    13    2
     7    12     1    1
     8     1     2    1
     9     2     3   ar
    10     3     4   ar
    11     4     5   ar
    12     5    19    1
    13    19    21    1
    14    21    22    1
    15    21    23    2
    16    21    24    2
    17     5     6   ar
    18     6     7   ar
    19     7     8    1
    20     8     9    2
    21     8    10   am
    22    10    25    1
    23    25    26    1
    24    26    27   ar
    25    27    28   ar
    26    28    29   ar
    27    29    30   ar
    28    30    31   ar
    29    31    32    1
    30    32    33   ar
    31    33    34   ar
    32    34    35   ar
    33    35    36   ar
    34    36    37   ar
    35    10     1    1
    36    31    26   ar
    37    37    32   ar
    38     7     2   ar
    39    11    14    1
    40    19    20    1
@<TRIPOS>MOLECULE
*****
 37 40 0 0 0
SMALL
GASTEIGER

@<TRIPOS>ATOM
      1 C         141.3401  140.1793  162.0058 C.3     1  UNL1        0.1753
      2 C         142.0400  141.1718  161.1254 C.ar    1  UNL1        0.0090
      3 C         143.4801  141.5772  161.0171 C.ar    1  UNL1       -0.0007
      4 C         143.8927  142.6204  160.0214 C.ar    1  UNL1        0.0156
      5 C         142.8652  143.2581  159.1339 C.ar    1  UNL1        0.0646
      6 C         141.4251  142.8526  159.2421 C.ar    1  UNL1        0.0201
      7 C         141.0125  141.8095  160.2379 C.ar    1  UNL1        0.0529
      8 C         139.6777  141.2111  160.5698 C.2     1  UNL1        0.2496
      9 O         138.3700  141.5592  159.9227 O.2     1  UNL1       -0.2699
     10 N         139.8802  140.2036  161.6625 N.am    1  UNL1       -0.2620
     11 N         142.7064  139.9433  164.2031 N.am    1  UNL1       -0.3059
     12 C         141.9868  139.3143  163.0468 C.2     1  UNL1        0.2448
     13 O         141.9139  137.8206  162.9318 O.2     1  UNL1       -0.2729
     14 H         142.7543  140.9237  164.2786 H       1  UNL1        0.1494
     15 C         142.0377  138.9490  165.9536 C.3     1  UNL1        0.0196
     16 C         143.3530  139.0783  165.2441 C.3     1  UNL1        0.0569
     17 C         144.6683  139.2076  164.5346 C.3     1  UNL1        0.0196
     18 C         143.9996  138.2134  166.2851 C.3     1  UNL1        0.0196
     19 N         143.2779  144.3013  158.1381 N.pl3   1  UNL1       -0.2187
     20 H         144.2329  144.4859  157.9857 H       1  UNL1        0.1734
     21 S         142.2356  145.0632  157.3745 S.O2    1  UNL1        0.0558
     22 C         141.1933  145.8252  156.6110 C.3     1  UNL1        0.1996
     23 O         142.3453  144.0818  156.2455 O.2     1  UNL1       -0.1544
     24 O         142.1259  146.0446  158.5036 O.2     1  UNL1       -0.1544
     25 C         138.8105  139.3672  162.2999 C.3     1  UNL1        0.1212
     26 C         138.7426  139.2472  163.7935 C.ar    1  UNL1       -0.0023
     27 C         138.6696  137.8931  164.4346 C.ar    1  UNL1       -0.0026
     28 C         138.6017  137.7731  165.9282 C.ar    1  UNL1       -0.0003
     29 C         138.6068  139.0072  166.7808 C.ar    1  UNL1       -0.0000
     30 C         138.6798  140.3613  166.1398 C.ar    1  UNL1       -0.0003
     31 C         138.7477  140.4814  164.6461 C.ar    1  UNL1       -0.0024
     32 C         138.8207  141.8355  164.0050 C.ar    1  UNL1       -0.0003
     33 C         140.1102  142.6017  164.0155 C.ar    1  UNL1       -0.0000
     34 C         140.1832  143.9558  163.3745 C.ar    1  UNL1       -0.0000
     35 C         138.9667  144.5438  162.7229 C.ar    1  UNL1       -0.0000
     36 C         137.6772  143.7776  162.7124 C.ar    1  UNL1       -0.0000
     37 C         137.6043  142.4234  163.3535 C.ar    1  UNL1       -0.0000
@<TRIPOS>BOND
     1    15    16    1
     2    16    17    1
     3    16    18    1
     4    16    11    1
     5    11    12   am
     6    12    13    2
     7    12     1    1
     8     1     2    1
     9     2     3   ar
    10     3     4   ar
    11     4     5   ar
    12     5    19    1
    13    19    21    1
    14    21    22    1
    15    21    23    2
    16    21    24    2
    17     5     6   ar
    18     6     7   ar
    19     7     8    1
    20     8     9    2
    21     8    10   am
    22    10    25    1
    23    25    26    1
    24    26    27   ar
    25    27    28   ar
    26    28    29   ar
    27    29    30   ar
    28    30    31   ar
    29    31    32    1
    30    32    33   ar
    31    33    34   ar
    32    34    35   ar
    33    35    36   ar
    34    36    37   ar
    35    10     1    1
    36    31    26   ar
    37    37    32   ar
    38     7     2   ar
    39    11    14    1
    40    19    20    1
@<TRIPOS>MOLECULE
*****
 37 40 0 0 0
SMALL
GASTEIGER

@<TRIPOS>ATOM
      1 C         141.8683  140.9644  163.6035 C.3     1  UNL1        0.1753
      2 C         142.1793  141.1132  165.0634 C.ar    1  UNL1        0.0090
      3 C         142.4046  142.3211  165.9236 C.ar    1  UNL1       -0.0007
      4 C         142.7039  142.1564  167.3842 C.ar    1  UNL1        0.0156
      5 C         142.7779  140.7838  167.9845 C.ar    1  UNL1        0.0646
      6 C         142.5526  139.5758  167.1243 C.ar    1  UNL1        0.0201
      7 C         142.2533  139.7405  165.6637 C.ar    1  UNL1        0.0529
      8 C         141.9881  138.7435  164.5749 C.2     1  UNL1        0.2496
      9 O         141.9648  137.2519  164.7317 O.2     1  UNL1       -0.2699
     10 N         141.7501  139.4999  163.3016 N.am    1  UNL1       -0.2620
     11 N         140.6313  143.1119  162.8233 N.am    1  UNL1       -0.3059
     12 C         141.7043  142.0838  162.6186 C.2     1  UNL1        0.2448
     13 O         142.6132  142.1752  161.4289 O.2     1  UNL1       -0.2729
     14 H         140.0347  143.0519  163.6042 H       1  UNL1        0.1494
     15 C         139.5289  143.3836  161.0315 C.3     1  UNL1        0.0196
     16 C         140.4673  144.2312  161.8384 C.3     1  UNL1        0.0569
     17 C         141.4057  145.0788  162.6453 C.3     1  UNL1        0.0196
     18 C         140.3034  145.3505  160.8534 C.3     1  UNL1        0.0196
     19 N         143.0772  140.6191  169.4451 N.pl3   1  UNL1       -0.2187
     20 H         143.9701  140.3216  169.7342 H       1  UNL1        0.1734
     21 S         142.0162  140.9077  170.4653 S.O2    1  UNL1        0.0558
     22 C         140.9551  141.1962  171.4856 C.3     1  UNL1        0.1996
     23 O         142.6016  142.2705  170.6887 O.2     1  UNL1       -0.1544
     24 O         141.4307  139.5449  170.2419 O.2     1  UNL1       -0.1544
     25 C         141.4472  138.8976  161.9616 C.3     1  UNL1        0.1212
     26 C         140.2843  139.4006  161.1588 C.ar    1  UNL1       -0.0023
     27 C         140.4746  139.7814  159.7205 C.ar    1  UNL1       -0.0026
     28 C         139.3117  140.2844  158.9176 C.ar    1  UNL1       -0.0003
     29 C         137.9585  140.4066  159.5531 C.ar    1  UNL1       -0.0000
     30 C         137.7681  140.0258  160.9914 C.ar    1  UNL1       -0.0003
     31 C         138.9311  139.5228  161.7943 C.ar    1  UNL1       -0.0024
     32 C         138.7408  139.1419  163.2326 C.ar    1  UNL1       -0.0003
     33 C         138.7646  137.6972  163.6354 C.ar    1  UNL1       -0.0000
     34 C         138.5742  137.3164  165.0737 C.ar    1  UNL1       -0.0000
     35 C         138.3601  138.3803  166.1092 C.ar    1  UNL1       -0.0000
     36 C         138.3363  139.8250  165.7064 C.ar    1  UNL1       -0.0000
     37 C         138.5266  140.2058  164.2680 C.ar    1  UNL1       -0.0000
@<TRIPOS>BOND
     1    15    16    1
     2    16    17    1
     3    16    18    1
     4    16    11    1
     5    11    12   am
     6    12    13    2
     7    12     1    1
     8     1     2    1
     9     2     3   ar
    10     3     4   ar
    11     4     5   ar
    12     5    19    1
    13    19    21    1
    14    21    22    1
    15    21    23    2
    16    21    24    2
    17     5     6   ar
    18     6     7   ar
    19     7     8    1
    20     8     9    2
    21     8    10   am
    22    10    25    1
    23    25    26    1
    24    26    27   ar
    25    27    28   ar
    26    28    29   ar
    27    29    30   ar
    28    30    31   ar
    29    31    32    1
    30    32    33   ar
    31    33    34   ar
    32    34    35   ar
    33    35    36   ar
    34    36    37   ar
    35    10     1    1
    36    31    26   ar
    37    37    32   ar
    38     7     2   ar
    39    11    14    1
    40    19    20    1
@<TRIPOS>MOLECULE
*****
 37 40 0 0 0
SMALL
GASTEIGER

@<TRIPOS>ATOM
      1 C         140.6142  142.2527  163.5098 C.3     1  UNL1        0.1753
      2 C         140.4222  142.9686  162.2057 C.ar    1  UNL1        0.0090
      3 C         139.5023  142.7162  161.0482 C.ar    1  UNL1       -0.0007
      4 C         139.5360  143.6211  159.8524 C.ar    1  UNL1        0.0156
      5 C         140.4895  144.7784  159.8141 C.ar    1  UNL1        0.0646
      6 C         141.4094  145.0308  160.9717 C.ar    1  UNL1        0.0201
      7 C         141.3758  144.1259  162.1675 C.ar    1  UNL1        0.0529
      8 C         142.1571  144.1252  163.4480 C.2     1  UNL1        0.2496
      9 O         143.2221  145.1094  163.8315 O.2     1  UNL1       -0.2699
     10 N         141.6864  142.9675  164.2776 N.am    1  UNL1       -0.2620
     11 N         140.1597  139.6996  163.3507 N.am    1  UNL1       -0.3059
     12 C         139.8655  141.0356  163.9660 C.2     1  UNL1        0.2448
     13 O         138.8226  141.1545  165.0375 O.2     1  UNL1       -0.2729
     14 H         140.8442  139.6215  162.6474 H       1  UNL1        0.1494
     15 C         138.3953  138.7019  162.7250 C.3     1  UNL1        0.0196
     16 C         139.4109  138.4825  163.8069 C.3     1  UNL1        0.0569
     17 C         140.4266  138.2632  164.8887 C.3     1  UNL1        0.0196
     18 C         138.6622  137.2655  164.2631 C.3     1  UNL1        0.0196
     19 N         140.5231  145.6833  158.6183 N.pl3   1  UNL1       -0.2187
     20 H         140.1481  146.5916  158.6776 H       1  UNL1        0.1734
     21 S         141.1281  145.2043  157.3320 S.O2    1  UNL1        0.0558
     22 C         141.7332  144.7252  156.0457 C.3     1  UNL1        0.1996
     23 O         139.7576  145.0708  156.7371 O.2     1  UNL1       -0.1544
     24 O         142.4986  145.3377  157.9269 O.2     1  UNL1       -0.1544
     25 C         142.1981  142.5907  165.6363 C.3     1  UNL1        0.1212
     26 C         142.7120  141.2039  165.8863 C.ar    1  UNL1       -0.0023
     27 C         143.5136  140.4997  164.8319 C.ar    1  UNL1       -0.0026
     28 C         144.0274  139.1128  165.0818 C.ar    1  UNL1       -0.0003
     29 C         143.7398  138.4301  166.3861 C.ar    1  UNL1       -0.0000
     30 C         142.9382  139.1342  167.4404 C.ar    1  UNL1       -0.0003
     31 C         142.4243  140.5211  167.1905 C.ar    1  UNL1       -0.0024
     32 C         141.6228  141.2253  168.2449 C.ar    1  UNL1       -0.0003
     33 C         140.2861  140.6839  168.6573 C.ar    1  UNL1       -0.0000
     34 C         139.4846  141.3880  169.7116 C.ar    1  UNL1       -0.0000
     35 C         140.0198  142.6336  170.3537 C.ar    1  UNL1       -0.0000
     36 C         141.3565  143.1750  169.9413 C.ar    1  UNL1       -0.0000
     37 C         142.1580  142.4708  168.8868 C.ar    1  UNL1       -0.0000
@<TRIPOS>BOND
     1    15    16    1
     2    16    17    1
     3    16    18    1
     4    16    11    1
     5    11    12   am
     6    12    13    2
     7    12     1    1
     8     1     2    1
     9     2     3   ar
    10     3     4   ar
    11     4     5   ar
    12     5    19    1
    13    19    21    1
    14    21    22    1
    15    21    23    2
    16    21    24    2
    17     5     6   ar
    18     6     7   ar
    19     7     8    1
    20     8     9    2
    21     8    10   am
    22    10    25    1
    23    25    26    1
    24    26    27   ar
    25    27    28   ar
    26    28    29   ar
    27    29    30   ar
    28    30    31   ar
    29    31    32    1
    30    32    33   ar
    31    33    34   ar
    32    34    35   ar
    33    35    36   ar
    34    36    37   ar
    35    10     1    1
    36    31    26   ar
    37    37    32   ar
    38     7     2   ar
    39    11    14    1
    40    19    20    1
@<TRIPOS>MOLECULE
*****
 37 40 0 0 0
SMALL
GASTEIGER

@<TRIPOS>ATOM
      1 C         140.3382  142.2340  163.3357 C.3     1  UNL1        0.1753
      2 C         139.8616  142.4247  161.9263 C.ar    1  UNL1        0.0090
      3 C         140.2011  143.4460  160.8816 C.ar    1  UNL1       -0.0007
      4 C         139.5508  143.3825  159.5314 C.ar    1  UNL1        0.0156
      5 C         138.5610  142.2976  159.2260 C.ar    1  UNL1        0.0646
      6 C         138.2215  141.2762  160.2707 C.ar    1  UNL1        0.0201
      7 C         138.8718  141.3398  161.6209 C.ar    1  UNL1        0.0529
      8 C         138.7367  140.4786  162.8416 C.2     1  UNL1        0.2496
      9 O         137.8508  139.2759  162.9784 O.2     1  UNL1       -0.2699
     10 N         139.6429  141.0312  163.9014 N.am    1  UNL1       -0.2620
     11 N         142.7952  142.7554  164.0001 N.am    1  UNL1       -0.3059
     12 C         141.3350  143.0949  164.0535 C.2     1  UNL1        0.2448
     13 O         140.8718  144.2952  164.8245 O.2     1  UNL1       -0.2729
     14 H         143.0993  141.9676  163.4941 H       1  UNL1        0.1494
     15 C         143.7902  144.5781  163.5667 C.3     1  UNL1        0.0196
     16 C         143.7920  143.6164  164.7179 C.3     1  UNL1        0.0569
     17 C         143.7938  142.6546  165.8690 C.3     1  UNL1        0.0196
     18 C         144.7888  144.4773  165.4356 C.3     1  UNL1        0.0196
     19 N         137.9106  142.2341  157.8757 N.pl3   1  UNL1       -0.2187
     20 H         137.3093  142.9572  157.5845 H       1  UNL1        0.1734
     21 S         138.1764  141.0689  156.9693 S.O2    1  UNL1        0.0558
     22 C         138.4421  139.9036  156.0628 C.3     1  UNL1        0.1996
     23 O         139.5789  141.5556  156.7549 O.2     1  UNL1       -0.1544
     24 O         136.7739  140.5822  157.1837 O.2     1  UNL1       -0.1544
     25 C         139.8224  140.4782  165.2842 C.3     1  UNL1        0.1212
     26 C         141.0861  139.7548  165.6444 C.ar    1  UNL1       -0.0023
     27 C         141.8028  138.9371  164.6111 C.ar    1  UNL1       -0.0026
     28 C         143.0665  138.2136  164.9713 C.ar    1  UNL1       -0.0003
     29 C         143.6134  138.3078  166.3649 C.ar    1  UNL1       -0.0000
     30 C         142.8967  139.1255  167.3982 C.ar    1  UNL1       -0.0003
     31 C         141.6330  139.8490  167.0380 C.ar    1  UNL1       -0.0024
     32 C         140.9163  140.6666  168.0713 C.ar    1  UNL1       -0.0003
     33 C         141.2193  142.1288  168.2132 C.ar    1  UNL1       -0.0000
     34 C         140.5027  142.9464  169.2465 C.ar    1  UNL1       -0.0000
     35 C         139.4829  142.3019  170.1380 C.ar    1  UNL1       -0.0000
     36 C         139.1798  140.8397  169.9960 C.ar    1  UNL1       -0.0000
     37 C         139.8966  140.0220  168.9627 C.ar    1  UNL1       -0.0000
@<TRIPOS>BOND
     1    15    16    1
     2    16    17    1
     3    16    18    1
     4    16    11    1
     5    11    12   am
     6    12    13    2
     7    12     1    1
     8     1     2    1
     9     2     3   ar
    10     3     4   ar
    11     4     5   ar
    12     5    19    1
    13    19    21    1
    14    21    22    1
    15    21    23    2
    16    21    24    2
    17     5     6   ar
    18     6     7   ar
    19     7     8    1
    20     8     9    2
    21     8    10   am
    22    10    25    1
    23    25    26    1
    24    26    27   ar
    25    27    28   ar
    26    28    29   ar
    27    29    30   ar
    28    30    31   ar
    29    31    32    1
    30    32    33   ar
    31    33    34   ar
    32    34    35   ar
    33    35    36   ar
    34    36    37   ar
    35    10     1    1
    36    31    26   ar
    37    37    32   ar
    38     7     2   ar
    39    11    14    1
    40    19    20    1
@<TRIPOS>MOLECULE
*****
 37 40 0 0 0
SMALL
GASTEIGER

@<TRIPOS>ATOM
      1 C         141.8340  139.4005  160.9757 C.3     1  UNL1        0.1753
      2 C         141.6626  138.7391  159.6403 C.ar    1  UNL1        0.0090
      3 C         142.6551  138.2213  158.6420 C.ar    1  UNL1       -0.0007
      4 C         142.1776  137.5954  157.3652 C.ar    1  UNL1        0.0156
      5 C         140.7077  137.4873  157.0868 C.ar    1  UNL1        0.0646
      6 C         139.7152  138.0051  158.0852 C.ar    1  UNL1        0.0201
      7 C         140.1927  138.6310  159.3619 C.ar    1  UNL1        0.0529
      8 C         139.4556  139.2256  160.5252 C.2     1  UNL1        0.2496
      9 O         137.9657  139.3269  160.6663 O.2     1  UNL1       -0.2699
     10 N         140.4701  139.7012  161.5226 N.am    1  UNL1       -0.2620
     11 N         143.2830  140.9472  162.4786 N.am    1  UNL1       -0.3059
     12 C         143.1402  139.7074  161.6464 C.2     1  UNL1        0.2448
     13 O         144.3036  138.7745  161.4850 O.2     1  UNL1       -0.2729
     14 H         142.5194  141.5596  162.5846 H       1  UNL1        0.1494
     15 C         145.0343  142.0135  161.9347 C.3     1  UNL1        0.0196
     16 C         144.5891  141.2541  163.1493 C.3     1  UNL1        0.0569
     17 C         144.1439  140.4946  164.3638 C.3     1  UNL1        0.0196
     18 C         145.8952  141.5609  163.8199 C.3     1  UNL1        0.0196
     19 N         140.2302  136.8614  155.8099 N.pl3   1  UNL1       -0.2187
     20 H         140.4458  135.9214  155.6118 H       1  UNL1        0.1734
     21 S         139.4244  137.6676  154.8349 S.O2    1  UNL1        0.0558
     22 C         138.6185  138.4738  153.8599 C.3     1  UNL1        0.1996
     23 O         140.6797  138.3206  154.3374 O.2     1  UNL1       -0.1544
     24 O         138.1690  137.0145  155.3325 O.2     1  UNL1       -0.1544
     25 C         140.1727  140.3616  162.8362 C.3     1  UNL1        0.1212
     26 C         139.5178  139.5808  163.9368 C.ar    1  UNL1       -0.0023
     27 C         139.5674  138.0816  163.9250 C.ar    1  UNL1       -0.0026
     28 C         138.9124  137.3009  165.0257 C.ar    1  UNL1       -0.0003
     29 C         138.2079  138.0192  166.1382 C.ar    1  UNL1       -0.0000
     30 C         138.1583  139.5183  166.1500 C.ar    1  UNL1       -0.0003
     31 C         138.8133  140.2992  165.0493 C.ar    1  UNL1       -0.0024
     32 C         138.7637  141.7983  165.0611 C.ar    1  UNL1       -0.0003
     33 C         137.6725  142.5184  164.3258 C.ar    1  UNL1       -0.0000
     34 C         137.6229  144.0175  164.3376 C.ar    1  UNL1       -0.0000
     35 C         138.6645  144.7966  165.0848 C.ar    1  UNL1       -0.0000
     36 C         139.7557  144.0764  165.8202 C.ar    1  UNL1       -0.0000
     37 C         139.8052  142.5772  165.8083 C.ar    1  UNL1       -0.0000
@<TRIPOS>BOND
     1    15    16    1
     2    16    17    1
     3    16    18    1
     4    16    11    1
     5    11    12   am
     6    12    13    2
     7    12     1    1
     8     1     2    1
     9     2     3   ar
    10     3     4   ar
    11     4     5   ar
    12     5    19    1
    13    19    21    1
    14    21    22    1
    15    21    23    2
    16    21    24    2
    17     5     6   ar
    18     6     7   ar
    19     7     8    1
    20     8     9    2
    21     8    10   am
    22    10    25    1
    23    25    26    1
    24    26    27   ar
    25    27    28   ar
    26    28    29   ar
    27    29    30   ar
    28    30    31   ar
    29    31    32    1
    30    32    33   ar
    31    33    34   ar
    32    34    35   ar
    33    35    36   ar
    34    36    37   ar
    35    10     1    1
    36    31    26   ar
    37    37    32   ar
    38     7     2   ar
    39    11    14    1
    40    19    20    1
@<TRIPOS>MOLECULE
*****
 37 40 0 0 0
SMALL
GASTEIGER

@<TRIPOS>ATOM
      1 C         141.6590  140.8574  162.3441 C.3     1  UNL1        0.1753
      2 C         142.0079  140.0346  161.1394 C.ar    1  UNL1        0.0090
      3 C         141.8088  138.5817  160.8243 C.ar    1  UNL1       -0.0007
      4 C         142.2712  138.0294  159.5086 C.ar    1  UNL1        0.0156
      5 C         142.9327  138.9300  158.5080 C.ar    1  UNL1        0.0646
      6 C         143.1318  140.3829  158.8230 C.ar    1  UNL1        0.0201
      7 C         142.6694  140.9352  160.1387 C.ar    1  UNL1        0.0529
      8 C         142.7293  142.3146  160.7250 C.2     1  UNL1        0.2496
      9 O         143.3114  143.5289  160.0643 O.2     1  UNL1       -0.2699
     10 N         142.1048  142.2665  162.0880 N.am    1  UNL1       -0.2620
     11 N         139.6088  139.7624  163.5051 N.am    1  UNL1       -0.3059
     12 C         140.9829  140.3586  163.5867 C.2     1  UNL1        0.2448
     13 O         141.6807  140.4559  164.9108 O.2     1  UNL1       -0.2729
     14 H         139.1507  139.6985  162.6360 H       1  UNL1        0.1494
     15 C         138.2664  140.5965  164.9202 C.3     1  UNL1        0.0196
     16 C         138.9327  139.2636  164.7477 C.3     1  UNL1        0.0569
     17 C         139.5990  137.9308  164.5753 C.3     1  UNL1        0.0196
     18 C         138.2566  138.7649  165.9903 C.3     1  UNL1        0.0196
     19 N         143.3950  138.3776  157.1922 N.pl3   1  UNL1       -0.2187
     20 H         144.2287  138.7075  156.7855 H       1  UNL1        0.1734
     21 S         142.5872  137.3227  156.4961 S.O2    1  UNL1        0.0558
     22 C         141.7793  136.2678  155.8000 C.3     1  UNL1        0.1996
     23 O         143.6598  136.3135  156.7808 O.2     1  UNL1       -0.1544
     24 O         141.5147  138.3319  156.2115 O.2     1  UNL1       -0.1544
     25 C         141.9528  143.4243  163.0295 C.3     1  UNL1        0.1212
     26 C         140.6104  143.7397  163.6198 C.ar    1  UNL1       -0.0023
     27 C         140.4220  143.7198  165.1078 C.ar    1  UNL1       -0.0026
     28 C         139.0796  144.0352  165.6981 C.ar    1  UNL1       -0.0003
     29 C         137.9256  144.3706  164.8005 C.ar    1  UNL1       -0.0000
     30 C         138.1140  144.3905  163.3125 C.ar    1  UNL1       -0.0003
     31 C         139.4564  144.0751  162.7221 C.ar    1  UNL1       -0.0024
     32 C         139.6448  144.0950  161.2342 C.ar    1  UNL1       -0.0003
     33 C         139.2030  142.9246  160.4065 C.ar    1  UNL1       -0.0000
     34 C         139.3914  142.9445  158.9185 C.ar    1  UNL1       -0.0000
     35 C         140.0216  144.1349  158.2582 C.ar    1  UNL1       -0.0000
     36 C         140.4633  145.3053  159.0859 C.ar    1  UNL1       -0.0000
     37 C         140.2749  145.2853  160.5739 C.ar    1  UNL1       -0.0000
@<TRIPOS>BOND
     1    15    16    1
     2    16    17    1
     3    16    18    1
     4    16    11    1
     5    11    12   am
     6    12    13    2
     7    12     1    1
     8     1     2    1
     9     2     3   ar
    10     3     4   ar
    11     4     5   ar
    12     5    19    1
    13    19    21    1
    14    21    22    1
    15    21    23    2
    16    21    24    2
    17     5     6   ar
    18     6     7   ar
    19     7     8    1
    20     8     9    2
    21     8    10   am
    22    10    25    1
    23    25    26    1
    24    26    27   ar
    25    27    28   ar
    26    28    29   ar
    27    29    30   ar
    28    30    31   ar
    29    31    32    1
    30    32    33   ar
    31    33    34   ar
    32    34    35   ar
    33    35    36   ar
    34    36    37   ar
    35    10     1    1
    36    31    26   ar
    37    37    32   ar
    38     7     2   ar
    39    11    14    1
    40    19    20    1
