@<TRIPOS>MOLECULE
*****
 34 38 0 0 0
SMALL
GASTEIGER

@<TRIPOS>ATOM
      1 C         141.8656  141.9410  164.5521 C.3     1  UNL1        0.0353
      2 C         142.9263  142.9795  164.3359 C.3     1  UNL1        0.0204
      3 C         143.5317  143.1613  162.9756 C.3     1  UNL1        0.0725
      4 N         143.0764  142.3047  161.8315 N.3     1  UNL1       -0.2690
      5 C         142.0158  141.2663  162.0477 C.3     1  UNL1        0.0725
      6 C         141.4103  141.0845  163.4080 C.3     1  UNL1        0.0204
      7 O         142.4811  141.0088  166.3555 O.3     1  UNL1       -0.3786
      8 C         141.2602  141.7593  165.9124 C.3     1  UNL1        0.1256
      9 H         142.3751  140.7362  167.2803 H       1  UNL1        0.2111
     10 C         140.6548  141.5775  167.2728 C.ar    1  UNL1        0.0056
     11 C         140.7401  142.6809  168.2852 C.ar    1  UNL1       -0.0017
     12 C         140.1347  142.4991  169.6455 C.ar    1  UNL1       -0.0002
     13 C         139.4439  141.2138  169.9933 C.ar    1  UNL1       -0.0000
     14 C         139.3585  140.1104  168.9808 C.ar    1  UNL1       -0.0002
     15 C         139.9640  140.2922  167.6206 C.ar    1  UNL1       -0.0017
     16 C         140.0394  142.5097  165.4694 C.ar    1  UNL1        0.0056
     17 C         138.8354  141.7609  164.9795 C.ar    1  UNL1       -0.0017
     18 C         137.6145  142.5113  164.5365 C.ar    1  UNL1       -0.0002
     19 C         137.5975  144.0105  164.5833 C.ar    1  UNL1       -0.0000
     20 C         138.8014  144.7593  165.0731 C.ar    1  UNL1       -0.0002
     21 C         140.0224  144.0088  165.5162 C.ar    1  UNL1       -0.0017
     22 C         143.6818  142.4865  160.4712 C.3     1  UNL1        0.0991
     23 C         142.9859  143.3341  159.4477 C.ar    1  UNL1       -0.0061
     24 C         143.3531  143.2129  157.9985 C.ar    1  UNL1       -0.0029
     25 C         142.6573  144.0604  156.9750 C.ar    1  UNL1       -0.0003
     26 C         141.5943  145.0291  157.4009 C.ar    1  UNL1       -0.0000
     27 C         141.2270  145.1503  158.8501 C.ar    1  UNL1       -0.0003
     28 C         141.9228  144.3028  159.8736 C.ar    1  UNL1       -0.0029
     29 C         140.8984  145.8767  156.3774 C.ar    1  UNL1       -0.0000
     30 C         139.7570  146.7601  156.7858 C.ar    1  UNL1       -0.0000
     31 C         139.0611  147.6077  155.7625 C.ar    1  UNL1        0.0000
     32 C         139.5066  147.5719  154.3305 C.ar    1  UNL1        0.0000
     33 C         140.6480  146.6885  153.9221 C.ar    1  UNL1        0.0000
     34 C         141.3439  145.8409  154.9456 C.ar    1  UNL1       -0.0000
@<TRIPOS>BOND
     1     7     8    1
     2     8    10    1
     3    10    11   ar
     4    11    12   ar
     5    12    13   ar
     6    13    14   ar
     7    14    15   ar
     8     8    16    1
     9    16    17   ar
    10    17    18   ar
    11    18    19   ar
    12    19    20   ar
    13    20    21   ar
    14     8     1    1
    15     1     2    1
    16     2     3    1
    17     3     4    1
    18     4    22    1
    19    22    23    1
    20    23    24   ar
    21    24    25   ar
    22    25    26   ar
    23    26    29    1
    24    29    30   ar
    25    30    31   ar
    26    31    32   ar
    27    32    33   ar
    28    33    34   ar
    29    26    27   ar
    30    27    28   ar
    31     4     5    1
    32     5     6    1
    33    15    10   ar
    34    21    16   ar
    35     6     1    1
    36    28    23   ar
    37    34    29   ar
    38     7     9    1
@<TRIPOS>MOLECULE
*****
 34 38 0 0 0
SMALL
GASTEIGER

@<TRIPOS>ATOM
      1 C         139.5502  141.0332  161.9091 C.3     1  UNL1        0.0353
      2 C         138.3920  141.6662  161.1964 C.3     1  UNL1        0.0204
      3 C         138.5153  142.0394  159.7488 C.3     1  UNL1        0.0725
      4 N         139.7969  141.7795  159.0139 N.3     1  UNL1       -0.2690
      5 C         140.9551  141.1465  159.7265 C.3     1  UNL1        0.0725
      6 C         140.8318  140.7733  161.1741 C.3     1  UNL1        0.0204
      7 O         139.5517  139.2100  162.9935 O.3     1  UNL1       -0.3786
      8 C         139.4269  140.6600  163.3566 C.3     1  UNL1        0.1256
      9 H         139.5034  138.6700  163.7978 H       1  UNL1        0.2111
     10 C         139.3035  140.2869  164.8043 C.ar    1  UNL1        0.0056
     11 C         138.1430  139.4579  165.2689 C.ar    1  UNL1       -0.0017
     12 C         138.0197  139.0848  166.7165 C.ar    1  UNL1       -0.0002
     13 C         139.0569  139.5407  167.6995 C.ar    1  UNL1       -0.0000
     14 C         140.2175  140.3697  167.2349 C.ar    1  UNL1       -0.0002
     15 C         140.3408  140.7428  165.7873 C.ar    1  UNL1       -0.0017
     16 C         139.3021  142.1100  163.7198 C.ar    1  UNL1        0.0056
     17 C         140.4859  143.0214  163.5856 C.ar    1  UNL1       -0.0017
     18 C         140.3612  144.4714  163.9487 C.ar    1  UNL1       -0.0002
     19 C         139.0525  145.0101  164.4461 C.ar    1  UNL1       -0.0000
     20 C         137.8687  144.0988  164.5803 C.ar    1  UNL1       -0.0002
     21 C         137.9935  142.6487  164.2171 C.ar    1  UNL1       -0.0017
     22 C         139.9202  142.1527  157.5663 C.3     1  UNL1        0.0991
     23 C         139.7491  143.5815  157.1429 C.ar    1  UNL1       -0.0061
     24 C         138.8766  143.9167  155.9697 C.ar    1  UNL1       -0.0029
     25 C         138.7055  145.3454  155.5462 C.ar    1  UNL1       -0.0003
     26 C         139.4068  146.4390  156.2959 C.ar    1  UNL1       -0.0000
     27 C         140.2793  146.1038  157.4691 C.ar    1  UNL1       -0.0003
     28 C         140.4505  144.6751  157.8926 C.ar    1  UNL1       -0.0029
     29 C         139.2357  147.8678  155.8725 C.ar    1  UNL1       -0.0000
     30 C         139.7917  148.3325  154.5591 C.ar    1  UNL1       -0.0000
     31 C         139.6206  149.7613  154.1357 C.ar    1  UNL1        0.0000
     32 C         138.8935  150.7254  155.0256 C.ar    1  UNL1        0.0000
     33 C         138.3376  150.2607  156.3390 C.ar    1  UNL1        0.0000
     34 C         138.5087  148.8319  156.7624 C.ar    1  UNL1       -0.0000
@<TRIPOS>BOND
     1     7     8    1
     2     8    10    1
     3    10    11   ar
     4    11    12   ar
     5    12    13   ar
     6    13    14   ar
     7    14    15   ar
     8     8    16    1
     9    16    17   ar
    10    17    18   ar
    11    18    19   ar
    12    19    20   ar
    13    20    21   ar
    14     8     1    1
    15     1     2    1
    16     2     3    1
    17     3     4    1
    18     4    22    1
    19    22    23    1
    20    23    24   ar
    21    24    25   ar
    22    25    26   ar
    23    26    29    1
    24    29    30   ar
    25    30    31   ar
    26    31    32   ar
    27    32    33   ar
    28    33    34   ar
    29    26    27   ar
    30    27    28   ar
    31     4     5    1
    32     5     6    1
    33    15    10   ar
    34    21    16   ar
    35     6     1    1
    36    28    23   ar
    37    34    29   ar
    38     7     9    1
@<TRIPOS>MOLECULE
*****
 34 38 0 0 0
SMALL
GASTEIGER

@<TRIPOS>ATOM
      1 C         140.6105  138.2017  161.4917 C.3     1  UNL1        0.0353
      2 C         142.0448  137.7658  161.4354 C.3     1  UNL1        0.0204
      3 C         142.7454  137.6607  160.1133 C.3     1  UNL1        0.0725
      4 N         142.0119  137.9915  158.8474 N.3     1  UNL1       -0.2690
      5 C         140.5778  138.4274  158.9036 C.3     1  UNL1        0.0725
      6 C         139.8770  138.5325  160.2257 C.3     1  UNL1        0.0204
      7 O         138.7150  137.6080  162.2361 O.3     1  UNL1       -0.3786
      8 C         139.9099  138.3068  162.8138 C.3     1  UNL1        0.1256
      9 H         138.0302  137.5215  162.9176 H       1  UNL1        0.2111
     10 C         139.2093  138.4119  164.1360 C.ar    1  UNL1        0.0056
     11 C         138.9098  137.1729  164.9266 C.ar    1  UNL1       -0.0017
     12 C         138.2092  137.2781  166.2488 C.ar    1  UNL1       -0.0002
     13 C         137.8080  138.6222  166.7802 C.ar    1  UNL1       -0.0000
     14 C         138.1075  139.8612  165.9895 C.ar    1  UNL1       -0.0002
     15 C         138.8081  139.7560  164.6674 C.ar    1  UNL1       -0.0017
     16 C         141.1048  139.0056  163.3915 C.ar    1  UNL1        0.0056
     17 C         141.9625  138.3097  164.4065 C.ar    1  UNL1       -0.0017
     18 C         143.1574  139.0085  164.9842 C.ar    1  UNL1       -0.0002
     19 C         143.4948  140.4031  164.5470 C.ar    1  UNL1       -0.0000
     20 C         142.6372  141.0990  163.5320 C.ar    1  UNL1       -0.0002
     21 C         141.4422  140.4002  162.9542 C.ar    1  UNL1       -0.0017
     22 C         142.7125  137.8865  157.5253 C.3     1  UNL1        0.0991
     23 C         142.9328  136.5418  156.8979 C.ar    1  UNL1       -0.0061
     24 C         143.2909  135.3640  157.7549 C.ar    1  UNL1       -0.0029
     25 C         143.5111  134.0194  157.1276 C.ar    1  UNL1       -0.0003
     26 C         143.3732  133.8526  155.6434 C.ar    1  UNL1       -0.0000
     27 C         143.0150  135.0305  154.7864 C.ar    1  UNL1       -0.0003
     28 C         142.7948  136.3751  155.4137 C.ar    1  UNL1       -0.0029
     29 C         143.5934  132.5080  155.0160 C.ar    1  UNL1       -0.0000
     30 C         142.9501  132.1793  153.7014 C.ar    1  UNL1       -0.0000
     31 C         143.1702  130.8348  153.0740 C.ar    1  UNL1        0.0000
     32 C         144.0338  129.8188  153.7612 C.ar    1  UNL1        0.0000
     33 C         144.6771  130.1475  155.0758 C.ar    1  UNL1        0.0000
     34 C         144.4569  131.4921  155.7032 C.ar    1  UNL1       -0.0000
@<TRIPOS>BOND
     1     7     8    1
     2     8    10    1
     3    10    11   ar
     4    11    12   ar
     5    12    13   ar
     6    13    14   ar
     7    14    15   ar
     8     8    16    1
     9    16    17   ar
    10    17    18   ar
    11    18    19   ar
    12    19    20   ar
    13    20    21   ar
    14     8     1    1
    15     1     2    1
    16     2     3    1
    17     3     4    1
    18     4    22    1
    19    22    23    1
    20    23    24   ar
    21    24    25   ar
    22    25    26   ar
    23    26    29    1
    24    29    30   ar
    25    30    31   ar
    26    31    32   ar
    27    32    33   ar
    28    33    34   ar
    29    26    27   ar
    30    27    28   ar
    31     4     5    1
    32     5     6    1
    33    15    10   ar
    34    21    16   ar
    35     6     1    1
    36    28    23   ar
    37    34    29   ar
    38     7     9    1
@<TRIPOS>MOLECULE
*****
 34 38 0 0 0
SMALL
GASTEIGER

@<TRIPOS>ATOM
      1 C         142.4009  141.1123  164.9044 C.3     1  UNL1        0.0353
      2 C         143.7644  140.5579  164.6148 C.3     1  UNL1        0.0204
      3 C         144.2861  140.5462  163.2086 C.3     1  UNL1        0.0725
      4 N         143.4444  141.0888  162.0918 N.3     1  UNL1       -0.2690
      5 C         142.0811  141.6432  162.3813 C.3     1  UNL1        0.0725
      6 C         141.5593  141.6549  163.7877 C.3     1  UNL1        0.0204
      7 O         142.9512  142.0981  166.7003 O.3     1  UNL1       -0.3786
      8 C         141.8792  141.1240  166.3107 C.3     1  UNL1        0.1256
      9 H         142.8642  142.3153  167.6416 H       1  UNL1        0.2111
     10 C         141.3574  141.1356  167.7170 C.ar    1  UNL1        0.0056
     11 C         141.5074  139.9199  168.5827 C.ar    1  UNL1       -0.0017
     12 C         140.9856  139.9316  169.9889 C.ar    1  UNL1       -0.0002
     13 C         140.3139  141.1591  170.5295 C.ar    1  UNL1       -0.0000
     14 C         140.1640  142.3748  169.6638 C.ar    1  UNL1       -0.0002
     15 C         140.6857  142.3631  168.2576 C.ar    1  UNL1       -0.0017
     16 C         140.8072  140.1498  165.9211 C.ar    1  UNL1        0.0056
     17 C         141.1782  138.7726  165.4565 C.ar    1  UNL1       -0.0017
     18 C         140.1062  137.7984  165.0669 C.ar    1  UNL1       -0.0002
     19 C         138.6633  138.2014  165.1419 C.ar    1  UNL1       -0.0000
     20 C         138.2923  139.5785  165.6064 C.ar    1  UNL1       -0.0002
     21 C         139.3643  140.5528  165.9960 C.ar    1  UNL1       -0.0017
     22 C         143.9661  141.0771  160.6855 C.3     1  UNL1        0.0991
     23 C         143.5559  139.9851  159.7424 C.ar    1  UNL1       -0.0061
     24 C         143.1857  138.6331  160.2761 C.ar    1  UNL1       -0.0029
     25 C         142.7755  137.5411  159.3331 C.ar    1  UNL1       -0.0003
     26 C         142.7356  137.8012  157.8564 C.ar    1  UNL1       -0.0000
     27 C         143.1058  139.1533  157.3227 C.ar    1  UNL1       -0.0003
     28 C         143.5160  140.2453  158.2657 C.ar    1  UNL1       -0.0029
     29 C         142.3253  136.7092  156.9133 C.ar    1  UNL1       -0.0000
     30 C         141.1193  136.8869  156.0393 C.ar    1  UNL1       -0.0000
     31 C         140.7091  135.7950  155.0962 C.ar    1  UNL1        0.0000
     32 C         141.5049  134.5254  155.0271 C.ar    1  UNL1        0.0000
     33 C         142.7110  134.3477  155.9011 C.ar    1  UNL1        0.0000
     34 C         143.1212  135.4397  156.8442 C.ar    1  UNL1       -0.0000
@<TRIPOS>BOND
     1     7     8    1
     2     8    10    1
     3    10    11   ar
     4    11    12   ar
     5    12    13   ar
     6    13    14   ar
     7    14    15   ar
     8     8    16    1
     9    16    17   ar
    10    17    18   ar
    11    18    19   ar
    12    19    20   ar
    13    20    21   ar
    14     8     1    1
    15     1     2    1
    16     2     3    1
    17     3     4    1
    18     4    22    1
    19    22    23    1
    20    23    24   ar
    21    24    25   ar
    22    25    26   ar
    23    26    29    1
    24    29    30   ar
    25    30    31   ar
    26    31    32   ar
    27    32    33   ar
    28    33    34   ar
    29    26    27   ar
    30    27    28   ar
    31     4     5    1
    32     5     6    1
    33    15    10   ar
    34    21    16   ar
    35     6     1    1
    36    28    23   ar
    37    34    29   ar
    38     7     9    1
@<TRIPOS>MOLECULE
*****
 34 38 0 0 0
SMALL
GASTEIGER

@<TRIPOS>ATOM
      1 C         142.3044  141.2151  165.6657 C.3     1  UNL1        0.0353
      2 C         142.7353  139.8070  165.3799 C.3     1  UNL1        0.0204
      3 C         143.4693  139.4902  164.1108 C.3     1  UNL1        0.0725
      4 N         143.7725  140.5815  163.1274 N.3     1  UNL1       -0.2690
      5 C         143.3417  141.9896  163.4131 C.3     1  UNL1        0.0725
      6 C         142.6076  142.3064  164.6823 C.3     1  UNL1        0.0204
      7 O         142.7954  141.1883  167.7292 O.3     1  UNL1       -0.3786
      8 C         141.5703  141.5319  166.9349 C.3     1  UNL1        0.1256
      9 H         142.6120  141.3073  168.6742 H       1  UNL1        0.2111
     10 C         140.8362  141.8486  168.2041 C.ar    1  UNL1        0.0056
     11 C         141.0149  143.1856  168.8601 C.ar    1  UNL1       -0.0017
     12 C         140.2808  143.5023  170.1293 C.ar    1  UNL1       -0.0002
     13 C         139.3680  142.4821  170.7423 C.ar    1  UNL1       -0.0000
     14 C         139.1893  141.1451  170.0862 C.ar    1  UNL1       -0.0002
     15 C         139.9234  140.8284  168.8171 C.ar    1  UNL1       -0.0017
     16 C         140.3452  141.8755  166.1405 C.ar    1  UNL1        0.0056
     17 C         139.9970  143.3115  165.8824 C.ar    1  UNL1       -0.0017
     18 C         138.7719  143.6551  165.0881 C.ar    1  UNL1       -0.0002
     19 C         137.8949  142.5627  164.5518 C.ar    1  UNL1       -0.0000
     20 C         138.2431  141.1267  164.8099 C.ar    1  UNL1       -0.0002
     21 C         139.4682  140.7831  165.6043 C.ar    1  UNL1       -0.0017
     22 C         144.5066  140.2648  161.8582 C.3     1  UNL1        0.0991
     23 C         143.7923  139.5834  160.7287 C.ar    1  UNL1       -0.0061
     24 C         143.3165  140.3822  159.5517 C.ar    1  UNL1       -0.0029
     25 C         142.6023  139.7008  158.4222 C.ar    1  UNL1       -0.0003
     26 C         142.3640  138.2207  158.4699 C.ar    1  UNL1       -0.0000
     27 C         142.8398  137.4219  159.6469 C.ar    1  UNL1       -0.0003
     28 C         143.5540  138.1032  160.7764 C.ar    1  UNL1       -0.0029
     29 C         141.6497  137.5393  157.3404 C.ar    1  UNL1       -0.0000
     30 C         142.3485  136.4787  156.5423 C.ar    1  UNL1       -0.0000
     31 C         141.6344  135.7973  155.4129 C.ar    1  UNL1        0.0000
     32 C         140.2214  136.1765  155.0815 C.ar    1  UNL1        0.0000
     33 C         139.5226  137.2370  155.8796 C.ar    1  UNL1        0.0000
     34 C         140.2368  137.9184  157.0090 C.ar    1  UNL1       -0.0000
@<TRIPOS>BOND
     1     7     8    1
     2     8    10    1
     3    10    11   ar
     4    11    12   ar
     5    12    13   ar
     6    13    14   ar
     7    14    15   ar
     8     8    16    1
     9    16    17   ar
    10    17    18   ar
    11    18    19   ar
    12    19    20   ar
    13    20    21   ar
    14     8     1    1
    15     1     2    1
    16     2     3    1
    17     3     4    1
    18     4    22    1
    19    22    23    1
    20    23    24   ar
    21    24    25   ar
    22    25    26   ar
    23    26    29    1
    24    29    30   ar
    25    30    31   ar
    26    31    32   ar
    27    32    33   ar
    28    33    34   ar
    29    26    27   ar
    30    27    28   ar
    31     4     5    1
    32     5     6    1
    33    15    10   ar
    34    21    16   ar
    35     6     1    1
    36    28    23   ar
    37    34    29   ar
    38     7     9    1
@<TRIPOS>MOLECULE
*****
 34 38 0 0 0
SMALL
GASTEIGER

@<TRIPOS>ATOM
      1 C         142.4238  141.1117  164.9107 C.3     1  UNL1        0.0353
      2 C         143.8056  140.5976  164.6340 C.3     1  UNL1        0.0204
      3 C         144.3302  140.5755  163.2289 C.3     1  UNL1        0.0725
      4 N         143.4732  141.0675  162.1005 N.3     1  UNL1       -0.2690
      5 C         142.0915  141.5816  162.3771 C.3     1  UNL1        0.0725
      6 C         141.5668  141.6037  163.7823 C.3     1  UNL1        0.0204
      7 O         142.9693  142.1121  166.6999 O.3     1  UNL1       -0.3786
      8 C         141.8992  141.1337  166.3157 C.3     1  UNL1        0.1256
      9 H         142.8800  142.3365  167.6394 H       1  UNL1        0.2111
     10 C         141.3745  141.1558  167.7209 C.ar    1  UNL1        0.0056
     11 C         140.7483  142.4041  168.2681 C.ar    1  UNL1       -0.0017
     12 C         140.2237  142.4260  169.6732 C.ar    1  UNL1       -0.0002
     13 C         140.3252  141.1997  170.5309 C.ar    1  UNL1       -0.0000
     14 C         140.9514  139.9514  169.9837 C.ar    1  UNL1       -0.0002
     15 C         141.4760  139.9294  168.5786 C.ar    1  UNL1       -0.0017
     16 C         140.8291  140.1553  165.9315 C.ar    1  UNL1        0.0056
     17 C         139.3846  140.5492  166.0233 C.ar    1  UNL1       -0.0017
     18 C         138.3146  139.5708  165.6391 C.ar    1  UNL1       -0.0002
     19 C         138.6889  138.1985  165.1632 C.ar    1  UNL1       -0.0000
     20 C         140.1333  137.8045  165.0714 C.ar    1  UNL1       -0.0002
     21 C         141.2035  138.7830  165.4556 C.ar    1  UNL1       -0.0017
     22 C         143.9978  141.0455  160.6954 C.3     1  UNL1        0.0991
     23 C         143.5778  139.9549  159.7550 C.ar    1  UNL1       -0.0061
     24 C         143.4385  140.2410  158.2892 C.ar    1  UNL1       -0.0029
     25 C         143.0185  139.1505  157.3488 C.ar    1  UNL1       -0.0003
     26 C         142.7379  137.7739  157.8743 C.ar    1  UNL1       -0.0000
     27 C         142.8772  137.4878  159.3401 C.ar    1  UNL1       -0.0003
     28 C         143.2972  138.5783  160.2805 C.ar    1  UNL1       -0.0029
     29 C         142.3179  136.6833  156.9339 C.ar    1  UNL1       -0.0000
     30 C         143.0496  135.3738  156.9294 C.ar    1  UNL1       -0.0000
     31 C         142.6296  134.2833  155.9890 C.ar    1  UNL1        0.0000
     32 C         141.4779  134.5021  155.0531 C.ar    1  UNL1        0.0000
     33 C         140.7463  135.8115  155.0576 C.ar    1  UNL1        0.0000
     34 C         141.1663  136.9021  155.9980 C.ar    1  UNL1       -0.0000
@<TRIPOS>BOND
     1     7     8    1
     2     8    10    1
     3    10    11   ar
     4    11    12   ar
     5    12    13   ar
     6    13    14   ar
     7    14    15   ar
     8     8    16    1
     9    16    17   ar
    10    17    18   ar
    11    18    19   ar
    12    19    20   ar
    13    20    21   ar
    14     8     1    1
    15     1     2    1
    16     2     3    1
    17     3     4    1
    18     4    22    1
    19    22    23    1
    20    23    24   ar
    21    24    25   ar
    22    25    26   ar
    23    26    29    1
    24    29    30   ar
    25    30    31   ar
    26    31    32   ar
    27    32    33   ar
    28    33    34   ar
    29    26    27   ar
    30    27    28   ar
    31     4     5    1
    32     5     6    1
    33    15    10   ar
    34    21    16   ar
    35     6     1    1
    36    28    23   ar
    37    34    29   ar
    38     7     9    1
@<TRIPOS>MOLECULE
*****
 34 38 0 0 0
SMALL
GASTEIGER

@<TRIPOS>ATOM
      1 C         140.7095  138.2132  161.4348 C.3     1  UNL1        0.0353
      2 C         139.9986  138.5714  160.1634 C.3     1  UNL1        0.0204
      3 C         140.7148  138.4698  158.8494 C.3     1  UNL1        0.0725
      4 N         142.1419  138.0100  158.8066 N.3     1  UNL1       -0.2690
      5 C         142.8529  137.6518  160.0779 C.3     1  UNL1        0.0725
      6 C         142.1367  137.7533  161.3920 C.3     1  UNL1        0.0204
      7 O         138.8027  137.6237  162.1532 O.3     1  UNL1       -0.3786
      8 C         139.9933  138.3147  162.7488 C.3     1  UNL1        0.1256
      9 H         138.1093  137.5367  162.8260 H       1  UNL1        0.2111
     10 C         139.2771  138.4164  164.0629 C.ar    1  UNL1        0.0056
     11 C         138.9725  137.1757  164.8489 C.ar    1  UNL1       -0.0017
     12 C         138.2563  137.2773  166.1630 C.ar    1  UNL1       -0.0002
     13 C         137.8448  138.6197  166.6910 C.ar    1  UNL1       -0.0000
     14 C         138.1495  139.8603  165.9050 C.ar    1  UNL1       -0.0002
     15 C         138.8656  139.7587  164.5909 C.ar    1  UNL1       -0.0017
     16 C         141.1840  139.0058  163.3443 C.ar    1  UNL1        0.0056
     17 C         141.5315  140.4017  162.9191 C.ar    1  UNL1       -0.0017
     18 C         142.7222  141.0927  163.5146 C.ar    1  UNL1       -0.0002
     19 C         143.5654  140.3879  164.5354 C.ar    1  UNL1       -0.0000
     20 C         143.2180  138.9920  164.9607 C.ar    1  UNL1       -0.0002
     21 C         142.0273  138.3009  164.3652 C.ar    1  UNL1       -0.0017
     22 C         142.8581  137.9084  157.4926 C.3     1  UNL1        0.0991
     23 C         142.9548  136.5859  156.7914 C.ar    1  UNL1       -0.0061
     24 C         142.6986  136.4989  155.3160 C.ar    1  UNL1       -0.0029
     25 C         142.7952  135.1764  154.6147 C.ar    1  UNL1       -0.0003
     26 C         143.1480  133.9411  155.3888 C.ar    1  UNL1       -0.0000
     27 C         143.4042  134.0281  156.8642 C.ar    1  UNL1       -0.0003
     28 C         143.3076  135.3505  157.5655 C.ar    1  UNL1       -0.0029
     29 C         143.2447  132.6185  154.6876 C.ar    1  UNL1       -0.0000
     30 C         144.0668  131.5132  155.2811 C.ar    1  UNL1       -0.0000
     31 C         144.1635  130.1908  154.5800 C.ar    1  UNL1        0.0000
     32 C         143.4380  129.9736  153.2851 C.ar    1  UNL1        0.0000
     33 C         142.6158  131.0789  152.6916 C.ar    1  UNL1        0.0000
     34 C         142.5192  132.4014  153.3928 C.ar    1  UNL1       -0.0000
@<TRIPOS>BOND
     1     7     8    1
     2     8    10    1
     3    10    11   ar
     4    11    12   ar
     5    12    13   ar
     6    13    14   ar
     7    14    15   ar
     8     8    16    1
     9    16    17   ar
    10    17    18   ar
    11    18    19   ar
    12    19    20   ar
    13    20    21   ar
    14     8     1    1
    15     1     2    1
    16     2     3    1
    17     3     4    1
    18     4    22    1
    19    22    23    1
    20    23    24   ar
    21    24    25   ar
    22    25    26   ar
    23    26    29    1
    24    29    30   ar
    25    30    31   ar
    26    31    32   ar
    27    32    33   ar
    28    33    34   ar
    29    26    27   ar
    30    27    28   ar
    31     4     5    1
    32     5     6    1
    33    15    10   ar
    34    21    16   ar
    35     6     1    1
    36    28    23   ar
    37    34    29   ar
    38     7     9    1
@<TRIPOS>MOLECULE
*****
 34 38 0 0 0
SMALL
GASTEIGER

@<TRIPOS>ATOM
      1 C         141.8060  141.2291  164.4104 C.3     1  UNL1        0.0353
      2 C         140.9377  140.8062  163.2625 C.3     1  UNL1        0.0204
      3 C         141.5084  140.7341  161.8773 C.3     1  UNL1        0.0725
      4 N         142.9473  141.0848  161.6397 N.3     1  UNL1       -0.2690
      5 C         143.8156  141.5077  162.7874 C.3     1  UNL1        0.0725
      6 C         143.2449  141.5798  164.1728 C.3     1  UNL1        0.0204
      7 O         142.2775  140.3349  166.2753 O.3     1  UNL1       -0.3786
      8 C         141.2353  141.3012  165.7956 C.3     1  UNL1        0.1256
      9 H         142.1542  140.1706  167.2233 H       1  UNL1        0.2111
     10 C         140.6645  141.3733  167.1810 C.ar    1  UNL1        0.0056
     11 C         140.8766  142.6008  168.0166 C.ar    1  UNL1       -0.0017
     12 C         140.3059  142.6729  169.4018 C.ar    1  UNL1       -0.0002
     13 C         139.5231  141.5175  169.9515 C.ar    1  UNL1       -0.0000
     14 C         139.3110  140.2900  169.1160 C.ar    1  UNL1       -0.0002
     15 C         139.8817  140.2179  167.7307 C.ar    1  UNL1       -0.0017
     16 C         140.1931  142.2674  165.3160 C.ar    1  UNL1        0.0056
     17 C         140.5548  143.7036  165.0776 C.ar    1  UNL1       -0.0017
     18 C         139.5126  144.6698  164.5980 C.ar    1  UNL1       -0.0002
     19 C         138.1087  144.2000  164.3567 C.ar    1  UNL1       -0.0000
     20 C         137.7469  142.7640  164.5951 C.ar    1  UNL1       -0.0002
     21 C         138.7891  141.7976  165.0747 C.ar    1  UNL1       -0.0017
     22 C         143.5180  141.0128  160.2544 C.3     1  UNL1        0.0991
     23 C         143.2443  139.8165  159.3918 C.ar    1  UNL1       -0.0061
     24 C         143.1827  138.4486  160.0042 C.ar    1  UNL1       -0.0029
     25 C         142.9090  137.2523  159.1416 C.ar    1  UNL1       -0.0003
     26 C         142.6969  137.4239  157.6667 C.ar    1  UNL1       -0.0000
     27 C         142.7585  138.7918  157.0543 C.ar    1  UNL1       -0.0003
     28 C         143.0322  139.9881  157.9168 C.ar    1  UNL1       -0.0029
     29 C         142.4232  136.2276  156.8041 C.ar    1  UNL1       -0.0000
     30 C         143.2554  134.9887  156.9540 C.ar    1  UNL1       -0.0000
     31 C         142.9818  133.7925  156.0915 C.ar    1  UNL1        0.0000
     32 C         141.8758  133.8351  155.0789 C.ar    1  UNL1        0.0000
     33 C         141.0436  135.0740  154.9290 C.ar    1  UNL1        0.0000
     34 C         141.3173  136.2703  155.7916 C.ar    1  UNL1       -0.0000
@<TRIPOS>BOND
     1     7     8    1
     2     8    10    1
     3    10    11   ar
     4    11    12   ar
     5    12    13   ar
     6    13    14   ar
     7    14    15   ar
     8     8    16    1
     9    16    17   ar
    10    17    18   ar
    11    18    19   ar
    12    19    20   ar
    13    20    21   ar
    14     8     1    1
    15     1     2    1
    16     2     3    1
    17     3     4    1
    18     4    22    1
    19    22    23    1
    20    23    24   ar
    21    24    25   ar
    22    25    26   ar
    23    26    29    1
    24    29    30   ar
    25    30    31   ar
    26    31    32   ar
    27    32    33   ar
    28    33    34   ar
    29    26    27   ar
    30    27    28   ar
    31     4     5    1
    32     5     6    1
    33    15    10   ar
    34    21    16   ar
    35     6     1    1
    36    28    23   ar
    37    34    29   ar
    38     7     9    1
@<TRIPOS>MOLECULE
*****
 34 38 0 0 0
SMALL
GASTEIGER

@<TRIPOS>ATOM
      1 C         142.8757  140.2579  162.8191 C.3     1  UNL1        0.0353
      2 C         143.9115  139.3957  162.1603 C.3     1  UNL1        0.0204
      3 C         143.9187  139.2393  160.6685 C.3     1  UNL1        0.0725
      4 N         142.8902  139.9451  159.8354 N.3     1  UNL1       -0.2690
      5 C         141.8545  140.8073  160.4941 C.3     1  UNL1        0.0725
      6 C         141.8472  140.9637  161.9860 C.3     1  UNL1        0.0204
      7 O         144.0722  141.3049  164.2234 O.3     1  UNL1       -0.3786
      8 C         142.8685  140.4142  164.3109 C.3     1  UNL1        0.1256
      9 H         144.3273  141.5922  165.1140 H       1  UNL1        0.2111
     10 C         142.8612  140.5706  165.8027 C.ar    1  UNL1        0.0056
     11 C         142.8157  139.3574  166.6837 C.ar    1  UNL1       -0.0017
     12 C         142.8084  139.5138  168.1755 C.ar    1  UNL1       -0.0002
     13 C         142.8466  140.8833  168.7863 C.ar    1  UNL1       -0.0000
     14 C         142.8921  142.0964  167.9053 C.ar    1  UNL1       -0.0002
     15 C         142.8994  141.9401  166.4135 C.ar    1  UNL1       -0.0017
     16 C         141.6647  139.5236  164.3984 C.ar    1  UNL1        0.0056
     17 C         141.8004  138.0518  164.1421 C.ar    1  UNL1       -0.0017
     18 C         140.5967  137.1612  164.2296 C.ar    1  UNL1       -0.0002
     19 C         139.2572  137.7422  164.5734 C.ar    1  UNL1       -0.0000
     20 C         139.1214  139.2138  164.8297 C.ar    1  UNL1       -0.0002
     21 C         140.3252  140.1046  164.7422 C.ar    1  UNL1       -0.0017
     22 C         142.8974  139.7888  158.3437 C.3     1  UNL1        0.0991
     23 C         144.0174  140.3718  157.5338 C.ar    1  UNL1       -0.0061
     24 C         144.4432  139.7099  156.2569 C.ar    1  UNL1       -0.0029
     25 C         145.5631  140.2929  155.4471 C.ar    1  UNL1       -0.0003
     26 C         146.2573  141.5378  155.9142 C.ar    1  UNL1       -0.0000
     27 C         145.8315  142.1998  157.1911 C.ar    1  UNL1       -0.0003
     28 C         144.7116  141.6168  158.0009 C.ar    1  UNL1       -0.0029
     29 C         147.3773  142.1209  155.1044 C.ar    1  UNL1       -0.0000
     30 C         148.7719  141.5917  155.2629 C.ar    1  UNL1       -0.0000
     31 C         149.8918  142.1747  154.4532 C.ar    1  UNL1        0.0000
     32 C         149.6172  143.2869  153.4848 C.ar    1  UNL1        0.0000
     33 C         148.2226  143.8160  153.3262 C.ar    1  UNL1        0.0000
     34 C         147.1026  143.2330  154.1360 C.ar    1  UNL1       -0.0000
@<TRIPOS>BOND
     1     7     8    1
     2     8    10    1
     3    10    11   ar
     4    11    12   ar
     5    12    13   ar
     6    13    14   ar
     7    14    15   ar
     8     8    16    1
     9    16    17   ar
    10    17    18   ar
    11    18    19   ar
    12    19    20   ar
    13    20    21   ar
    14     8     1    1
    15     1     2    1
    16     2     3    1
    17     3     4    1
    18     4    22    1
    19    22    23    1
    20    23    24   ar
    21    24    25   ar
    22    25    26   ar
    23    26    29    1
    24    29    30   ar
    25    30    31   ar
    26    31    32   ar
    27    32    33   ar
    28    33    34   ar
    29    26    27   ar
    30    27    28   ar
    31     4     5    1
    32     5     6    1
    33    15    10   ar
    34    21    16   ar
    35     6     1    1
    36    28    23   ar
    37    34    29   ar
    38     7     9    1
