@<TRIPOS>MOLECULE
*****
 34 38 0 0 0
SMALL
GASTEIGER

@<TRIPOS>ATOM
      1 C         139.6435  142.4483  161.8714 C.ar    1  UNL1        0.0329
      2 C         138.1480  142.5520  161.8186 C.ar    1  UNL1        0.1001
      3 N         137.3424  142.4216  163.0772 N.ar    1  UNL1       -0.2420
      4 C         138.0322  142.1876  164.3884 C.ar    1  UNL1        0.1078
      5 C         139.5277  142.0840  164.4412 C.ar    1  UNL1        0.1207
      6 C         140.3333  142.2143  163.1826 C.ar    1  UNL1        0.0583
      7 C         140.2175  141.8500  165.7524 C.2     1  UNL1        0.3780
      8 N         140.7714  140.5427  166.2363 N.2     1  UNL1       -0.0307
      9 C         141.3708  140.7670  167.5930 C.2     1  UNL1        0.2343
     10 C         142.0599  139.8414  168.5513 C.2     1  UNL1        0.0794
     11 C         142.5656  140.3617  169.8641 C.2     1  UNL1        0.1402
     12 F         143.2548  139.4361  170.8225 F       1  UNL1       -0.2044
     13 C         142.3821  141.8076  170.2186 C.2     1  UNL1        0.0125
     14 C         141.6930  142.7332  169.2603 C.3     1  UNL1        0.1060
     15 C         141.1873  142.2129  167.9475 C.2     1  UNL1        0.2179
     16 N         140.4746  142.8822  166.8100 N.2     1  UNL1       -0.0346
     17 N         141.8289  142.1107  163.2353 N.pl3   1  UNL1       -0.3071
     18 C         142.4954  140.7799  163.0489 C.3     1  UNL1        0.0921
     19 C         143.9909  140.6763  163.1016 C.3     1  UNL1        0.0369
     20 C         144.8198  141.9034  163.3407 C.3     1  UNL1        0.0542
     21 N         146.3153  141.7997  163.3933 N.3     1  UNL1       -0.3221
     22 C         144.1533  143.2341  163.5271 C.3     1  UNL1        0.0369
     23 C         142.6577  143.3378  163.4744 C.3     1  UNL1        0.0921
     24 H         146.5942  140.8294  163.2478 H       1  UNL1        0.1188
     25 H         146.6461  142.1154  164.3051 H       1  UNL1        0.1188
     26 C         141.7946  144.0473  158.9446 C.ar    1  UNL1        0.1410
     27 C         142.0606  142.8394  158.0957 C.ar    1  UNL1        0.0665
     28 C         141.5208  141.5012  158.5055 C.ar    1  UNL1        0.1432
     29 F         141.7868  140.2934  157.6568 F       1  UNL1       -0.2041
     30 C         140.7151  141.3708  159.7641 C.ar    1  UNL1        0.0299
     31 C         140.4492  142.5787  160.6128 C.ar    1  UNL1        0.0079
     32 C         140.9889  143.9169  160.2031 C.ar    1  UNL1        0.0371
     33 C         142.0142  145.9399  157.1783 C.3     1  UNL1        0.2525
     34 O         142.3344  145.3855  158.5348 O.3     1  UNL1       -0.4714
@<TRIPOS>BOND
     1    33    34    1
     2    34    26    1
     3    26    27   ar
     4    27    28   ar
     5    28    29    1
     6    28    30   ar
     7    30    31   ar
     8    31     1    1
     9     1     2   ar
    10     2     3   ar
    11     3     4   ar
    12     4     5   ar
    13     5     7    1
    14     7     8    2
    15     8     9    1
    16     9    10    2
    17    10    11    1
    18    11    12    1
    19    11    13    2
    20    13    14    1
    21    14    15    1
    22    15    16    2
    23     5     6   ar
    24     6    17    1
    25    17    18    1
    26    18    19    1
    27    19    20    1
    28    20    21    1
    29    20    22    1
    30    22    23    1
    31    31    32   ar
    32    32    26   ar
    33     6     1   ar
    34    23    17    1
    35    16     7    1
    36    15     9    1
    37    21    24    1
    38    21    25    1
@<TRIPOS>MOLECULE
*****
 34 38 0 0 0
SMALL
GASTEIGER

@<TRIPOS>ATOM
      1 C         140.8012  139.1286  162.3711 C.ar    1  UNL1        0.0329
      2 C         140.8645  137.6403  162.5468 C.ar    1  UNL1        0.1001
      3 N         141.1000  137.0551  163.9076 N.ar    1  UNL1       -0.2420
      4 C         141.2723  137.9582  165.0929 C.ar    1  UNL1        0.1078
      5 C         141.2091  139.4465  164.9172 C.ar    1  UNL1        0.1207
      6 C         140.9735  140.0317  163.5564 C.ar    1  UNL1        0.0583
      7 C         141.3813  140.3495  166.1025 C.2     1  UNL1        0.3780
      8 N         142.6524  140.5652  166.8692 N.2     1  UNL1       -0.0307
      9 C         142.3694  141.5445  167.9697 C.2     1  UNL1        0.2343
     10 C         143.2416  142.1318  169.0394 C.2     1  UNL1        0.0794
     11 C         142.6678  143.1086  170.0225 C.2     1  UNL1        0.1402
     12 F         143.5400  143.6960  171.0923 F       1  UNL1       -0.2044
     13 C         141.2219  143.4981  169.9359 C.2     1  UNL1        0.0125
     14 C         140.3497  142.9108  168.8662 C.3     1  UNL1        0.1060
     15 C         140.9235  141.9340  167.8831 C.2     1  UNL1        0.2179
     16 N         140.3128  141.1955  166.7291 N.2     1  UNL1       -0.0346
     17 N         140.9103  141.5201  163.3807 N.pl3   1  UNL1       -0.3071
     18 C         142.1764  142.3166  163.2690 C.3     1  UNL1        0.0921
     19 C         142.1132  143.8049  163.0934 C.3     1  UNL1        0.0369
     20 C         140.7838  144.4968  163.0293 C.3     1  UNL1        0.0542
     21 N         140.7206  145.9851  162.8537 N.3     1  UNL1       -0.3221
     22 C         139.5177  143.7003  163.1410 C.3     1  UNL1        0.0369
     23 C         139.5809  142.2119  163.3167 C.3     1  UNL1        0.0921
     24 H         141.6670  146.3611  162.7962 H       1  UNL1        0.1188
     25 H         140.2371  146.4012  163.6496 H       1  UNL1        0.1188
     26 C         138.9545  140.2782  159.0518 C.ar    1  UNL1        0.1410
     27 C         140.0946  140.8845  158.2885 C.ar    1  UNL1        0.0665
     28 C         141.4703  140.9055  158.8860 C.ar    1  UNL1        0.1432
     29 F         142.6104  141.5117  158.1228 F       1  UNL1       -0.2041
     30 C         141.7058  140.3201  160.2470 C.ar    1  UNL1        0.0299
     31 C         140.5657  139.7139  161.0102 C.ar    1  UNL1        0.0079
     32 C         139.1900  139.6930  160.4127 C.ar    1  UNL1        0.0371
     33 C         137.2877  141.0492  157.2139 C.3     1  UNL1        0.2525
     34 O         137.5788  140.2573  158.4543 O.3     1  UNL1       -0.4714
@<TRIPOS>BOND
     1    33    34    1
     2    34    26    1
     3    26    27   ar
     4    27    28   ar
     5    28    29    1
     6    28    30   ar
     7    30    31   ar
     8    31     1    1
     9     1     2   ar
    10     2     3   ar
    11     3     4   ar
    12     4     5   ar
    13     5     7    1
    14     7     8    2
    15     8     9    1
    16     9    10    2
    17    10    11    1
    18    11    12    1
    19    11    13    2
    20    13    14    1
    21    14    15    1
    22    15    16    2
    23     5     6   ar
    24     6    17    1
    25    17    18    1
    26    18    19    1
    27    19    20    1
    28    20    21    1
    29    20    22    1
    30    22    23    1
    31    31    32   ar
    32    32    26   ar
    33     6     1   ar
    34    23    17    1
    35    16     7    1
    36    15     9    1
    37    21    24    1
    38    21    25    1
@<TRIPOS>MOLECULE
*****
 34 38 0 0 0
SMALL
GASTEIGER

@<TRIPOS>ATOM
      1 C         140.7369  138.7770  164.8787 C.ar    1  UNL1        0.0329
      2 C         141.1137  137.3607  164.5591 C.ar    1  UNL1        0.1001
      3 N         141.1513  136.8984  163.1326 N.ar    1  UNL1       -0.2420
      4 C         140.8122  137.8523  162.0258 C.ar    1  UNL1        0.1078
      5 C         140.4354  139.2686  162.3455 C.ar    1  UNL1        0.1207
      6 C         140.3978  139.7309  163.7719 C.ar    1  UNL1        0.0583
      7 C         140.0963  140.2225  161.2386 C.2     1  UNL1        0.3780
      8 N         138.8675  140.1755  160.3798 N.2     1  UNL1       -0.0307
      9 C         138.9382  141.3149  159.4067 C.2     1  UNL1        0.2343
     10 C         138.0082  141.7654  158.3194 C.2     1  UNL1        0.0794
     11 C         138.3508  142.9671  157.4897 C.2     1  UNL1        0.1402
     12 F         137.4208  143.4177  156.4024 F       1  UNL1       -0.2044
     13 C         139.6234  143.7182  157.7472 C.2     1  UNL1        0.0125
     14 C         140.5534  143.2677  158.8344 C.3     1  UNL1        0.1060
     15 C         140.2108  142.0660  159.6642 C.2     1  UNL1        0.2179
     16 N         140.9265  141.3909  160.7964 N.2     1  UNL1       -0.0346
     17 N         140.0210  141.1472  164.0916 N.pl3   1  UNL1       -0.3071
     18 C         141.0896  142.1816  164.2875 C.3     1  UNL1        0.0921
     19 C         140.7129  143.5978  164.6072 C.3     1  UNL1        0.0369
     20 C         139.2676  143.9798  164.7310 C.3     1  UNL1        0.0542
     21 N         138.8909  145.3961  165.0507 N.3     1  UNL1       -0.3221
     22 C         138.1990  142.9455  164.5351 C.3     1  UNL1        0.0369
     23 C         138.5758  141.5291  164.2154 C.3     1  UNL1        0.0921
     24 H         139.7360  145.9586  165.1498 H       1  UNL1        0.1188
     25 H         138.3630  145.4188  165.9231 H       1  UNL1        0.1188
     26 C         141.9346  140.0701  168.4345 C.ar    1  UNL1        0.1410
     27 C         140.6240  140.1642  169.1581 C.ar    1  UNL1        0.0665
     28 C         139.3511  139.7958  168.4553 C.ar    1  UNL1        0.1432
     29 F         138.0406  139.8899  169.1789 F       1  UNL1       -0.2041
     30 C         139.3888  139.3334  167.0288 C.ar    1  UNL1        0.0299
     31 C         140.6993  139.2394  166.3052 C.ar    1  UNL1        0.0079
     32 C         141.9722  139.6077  167.0080 C.ar    1  UNL1        0.0371
     33 C         143.3331  141.7727  169.8113 C.3     1  UNL1        0.2525
     34 O         143.2075  140.4384  169.1373 O.3     1  UNL1       -0.4714
@<TRIPOS>BOND
     1    33    34    1
     2    34    26    1
     3    26    27   ar
     4    27    28   ar
     5    28    29    1
     6    28    30   ar
     7    30    31   ar
     8    31     1    1
     9     1     2   ar
    10     2     3   ar
    11     3     4   ar
    12     4     5   ar
    13     5     7    1
    14     7     8    2
    15     8     9    1
    16     9    10    2
    17    10    11    1
    18    11    12    1
    19    11    13    2
    20    13    14    1
    21    14    15    1
    22    15    16    2
    23     5     6   ar
    24     6    17    1
    25    17    18    1
    26    18    19    1
    27    19    20    1
    28    20    21    1
    29    20    22    1
    30    22    23    1
    31    31    32   ar
    32    32    26   ar
    33     6     1   ar
    34    23    17    1
    35    16     7    1
    36    15     9    1
    37    21    24    1
    38    21    25    1
@<TRIPOS>MOLECULE
*****
 34 38 0 0 0
SMALL
GASTEIGER

@<TRIPOS>ATOM
      1 C         140.6256  139.3871  162.1490 C.ar    1  UNL1        0.0329
      2 C         139.9156  138.0744  162.2998 C.ar    1  UNL1        0.1001
      3 N         139.5352  137.5799  163.6639 N.ar    1  UNL1       -0.2420
      4 C         139.8649  138.3980  164.8772 C.ar    1  UNL1        0.1078
      5 C         140.5749  139.7106  164.7264 C.ar    1  UNL1        0.1207
      6 C         140.9553  140.2052  163.3623 C.ar    1  UNL1        0.0583
      7 C         140.9046  140.5287  165.9397 C.2     1  UNL1        0.3780
      8 N         142.2364  140.5892  166.6271 N.2     1  UNL1       -0.0307
      9 C         142.1152  141.5278  167.7908 C.2     1  UNL1        0.2343
     10 C         143.1041  141.9764  168.8256 C.2     1  UNL1        0.0794
     11 C         142.6862  142.9448  169.8922 C.2     1  UNL1        0.1402
     12 F         143.6751  143.3935  170.9271 F       1  UNL1       -0.2044
     13 C         141.2795  143.4645  169.9240 C.2     1  UNL1        0.0125
     14 C         140.2906  143.0158  168.8892 C.3     1  UNL1        0.1060
     15 C         140.7085  142.0475  167.8226 C.2     1  UNL1        0.2179
     16 N         139.9603  141.4300  166.6785 N.2     1  UNL1       -0.0346
     17 N         141.6653  141.5179  163.2115 N.pl3   1  UNL1       -0.3071
     18 C         140.8765  142.7804  163.0278 C.3     1  UNL1        0.0921
     19 C         141.5865  144.0931  162.8770 C.3     1  UNL1        0.0369
     20 C         143.0854  144.1433  162.9098 C.3     1  UNL1        0.0542
     21 N         143.7953  145.4559  162.7590 N.3     1  UNL1       -0.3221
     22 C         143.8742  142.8807  163.0935 C.3     1  UNL1        0.0369
     23 C         143.1641  141.5680  163.2443 C.3     1  UNL1        0.0921
     24 H         143.1095  146.2022  162.6446 H       1  UNL1        0.1188
     25 H         144.4013  145.4225  161.9392 H       1  UNL1        0.1188
     26 C         142.7328  140.0419  158.8504 C.ar    1  UNL1        0.1410
     27 C         141.7668  140.8709  158.0568 C.ar    1  UNL1        0.0665
     28 C         140.4204  141.2052  158.6273 C.ar    1  UNL1        0.1432
     29 F         139.4545  142.0341  157.8337 F       1  UNL1       -0.2041
     30 C         140.0400  140.7106  159.9914 C.ar    1  UNL1        0.0299
     31 C         141.0060  139.8817  160.7849 C.ar    1  UNL1        0.0079
     32 C         142.3524  139.5473  160.2145 C.ar    1  UNL1        0.0371
     33 C         144.7699  140.6787  157.3689 C.3     1  UNL1        0.2525
     34 O         144.0792  139.7076  158.2799 O.3     1  UNL1       -0.4714
@<TRIPOS>BOND
     1    33    34    1
     2    34    26    1
     3    26    27   ar
     4    27    28   ar
     5    28    29    1
     6    28    30   ar
     7    30    31   ar
     8    31     1    1
     9     1     2   ar
    10     2     3   ar
    11     3     4   ar
    12     4     5   ar
    13     5     7    1
    14     7     8    2
    15     8     9    1
    16     9    10    2
    17    10    11    1
    18    11    12    1
    19    11    13    2
    20    13    14    1
    21    14    15    1
    22    15    16    2
    23     5     6   ar
    24     6    17    1
    25    17    18    1
    26    18    19    1
    27    19    20    1
    28    20    21    1
    29    20    22    1
    30    22    23    1
    31    31    32   ar
    32    32    26   ar
    33     6     1   ar
    34    23    17    1
    35    16     7    1
    36    15     9    1
    37    21    24    1
    38    21    25    1
@<TRIPOS>MOLECULE
*****
 34 38 0 0 0
SMALL
GASTEIGER

@<TRIPOS>ATOM
      1 C         139.5911  142.2212  161.7690 C.ar    1  UNL1        0.0329
      2 C         138.0934  142.2817  161.7115 C.ar    1  UNL1        0.1001
      3 N         137.2890  142.1599  162.9716 N.ar    1  UNL1       -0.2420
      4 C         137.9822  141.9775  164.2893 C.ar    1  UNL1        0.1078
      5 C         139.4799  141.9170  164.3468 C.ar    1  UNL1        0.1207
      6 C         140.2843  142.0388  163.0867 C.ar    1  UNL1        0.0583
      7 C         140.1731  141.7347  165.6645 C.2     1  UNL1        0.3780
      8 N         140.7560  140.4540  166.1843 N.2     1  UNL1       -0.0307
      9 C         141.3483  140.7288  167.5347 C.2     1  UNL1        0.2343
     10 C         142.0570  139.8457  168.5184 C.2     1  UNL1        0.0794
     11 C         142.5489  140.4130  169.8169 C.2     1  UNL1        0.1402
     12 F         143.2577  139.5298  170.8007 F       1  UNL1       -0.2044
     13 C         142.3321  141.8635  170.1317 C.2     1  UNL1        0.0125
     14 C         141.6234  142.7466  169.1480 C.3     1  UNL1        0.1060
     15 C         141.1315  142.1793  167.8495 C.2     1  UNL1        0.2179
     16 N         140.4052  142.8009  166.6936 N.2     1  UNL1       -0.0346
     17 N         141.7820  141.9783  163.1441 N.pl3   1  UNL1       -0.3071
     18 C         142.4862  140.6637  162.9834 C.3     1  UNL1        0.0921
     19 C         143.9839  140.6031  163.0408 C.3     1  UNL1        0.0369
     20 C         144.7774  141.8573  163.2590 C.3     1  UNL1        0.0542
     21 N         146.2750  141.7967  163.3165 N.3     1  UNL1       -0.3221
     22 C         144.0732  143.1719  163.4198 C.3     1  UNL1        0.0369
     23 C         142.5755  143.2324  163.3623 C.3     1  UNL1        0.0921
     24 H         146.5815  140.8322  163.1893 H       1  UNL1        0.1188
     25 H         146.5946  142.1382  164.2229 H       1  UNL1        0.1188
     26 C         141.5473  141.2377  158.4590 C.ar    1  UNL1        0.1410
     27 C         142.0046  142.5867  157.9885 C.ar    1  UNL1        0.0665
     28 C         141.6573  143.8138  158.7782 C.ar    1  UNL1        0.1432
     29 F         142.1145  145.1627  158.3077 F       1  UNL1       -0.2041
     30 C         140.8528  143.6919  160.0384 C.ar    1  UNL1        0.0299
     31 C         140.3956  142.3430  160.5088 C.ar    1  UNL1        0.0079
     32 C         140.7429  141.1159  159.7192 C.ar    1  UNL1        0.0371
     33 C         142.4418  138.8002  158.3663 C.3     1  UNL1        0.2525
     34 O         141.8946  140.0106  157.6694 O.3     1  UNL1       -0.4714
@<TRIPOS>BOND
     1    33    34    1
     2    34    26    1
     3    26    27   ar
     4    27    28   ar
     5    28    29    1
     6    28    30   ar
     7    30    31   ar
     8    31     1    1
     9     1     2   ar
    10     2     3   ar
    11     3     4   ar
    12     4     5   ar
    13     5     7    1
    14     7     8    2
    15     8     9    1
    16     9    10    2
    17    10    11    1
    18    11    12    1
    19    11    13    2
    20    13    14    1
    21    14    15    1
    22    15    16    2
    23     5     6   ar
    24     6    17    1
    25    17    18    1
    26    18    19    1
    27    19    20    1
    28    20    21    1
    29    20    22    1
    30    22    23    1
    31    31    32   ar
    32    32    26   ar
    33     6     1   ar
    34    23    17    1
    35    16     7    1
    36    15     9    1
    37    21    24    1
    38    21    25    1
@<TRIPOS>MOLECULE
*****
 34 38 0 0 0
SMALL
GASTEIGER

@<TRIPOS>ATOM
      1 C         143.4510  141.7135  161.7122 C.ar    1  UNL1        0.0329
      2 C         144.9489  141.7920  161.7085 C.ar    1  UNL1        0.1001
      3 N         145.7039  141.7774  163.0045 N.ar    1  UNL1       -0.2420
      4 C         144.9609  141.6844  164.3043 C.ar    1  UNL1        0.1078
      5 C         143.4630  141.6059  164.3080 C.ar    1  UNL1        0.1207
      6 C         142.7081  141.6204  163.0119 C.ar    1  UNL1        0.0583
      7 C         142.7201  141.5129  165.6077 C.2     1  UNL1        0.3780
      8 N         142.5647  140.2802  166.4482 N.2     1  UNL1       -0.0307
      9 C         141.7507  140.6417  167.6552 C.2     1  UNL1        0.2343
     10 C         141.2812  139.8331  168.8281 C.2     1  UNL1        0.0794
     11 C         140.4638  140.4805  169.9063 C.2     1  UNL1        0.1402
     12 F         139.9943  139.6719  171.0793 F       1  UNL1       -0.2044
     13 C         140.1160  141.9366  169.8118 C.2     1  UNL1        0.0125
     14 C         140.5855  142.7452  168.6389 C.3     1  UNL1        0.1060
     15 C         141.4028  142.0977  167.5606 C.2     1  UNL1        0.2179
     16 N         142.0020  142.6361  166.2952 N.2     1  UNL1       -0.0346
     17 N         141.2101  141.5419  163.0156 N.pl3   1  UNL1       -0.3071
     18 C         140.5290  140.2057  162.9872 C.3     1  UNL1        0.0921
     19 C         139.0311  140.1272  162.9908 C.3     1  UNL1        0.0369
     20 C         138.2142  141.3848  163.0229 C.3     1  UNL1        0.0542
     21 N         136.7163  141.3063  163.0265 N.3     1  UNL1       -0.3221
     22 C         138.8952  142.7210  163.0513 C.3     1  UNL1        0.0369
     23 C         140.3932  142.7995  163.0477 C.3     1  UNL1        0.0921
     24 H         136.4270  140.3284  163.0050 H       1  UNL1        0.1188
     25 H         136.3486  141.7878  162.2060 H       1  UNL1        0.1188
     26 C         141.5024  143.0465  158.5222 C.ar    1  UNL1        0.1410
     27 C         141.1860  141.7571  157.8240 C.ar    1  UNL1        0.0665
     28 C         141.6245  140.4532  158.4219 C.ar    1  UNL1        0.1432
     29 F         141.3081  139.1638  157.7237 F       1  UNL1       -0.2041
     30 C         142.3796  140.4386  159.7180 C.ar    1  UNL1        0.0299
     31 C         142.6960  141.7280  160.4161 C.ar    1  UNL1        0.0079
     32 C         142.2574  143.0319  159.8182 C.ar    1  UNL1        0.0371
     33 C         142.0503  145.4679  157.7562 C.3     1  UNL1        0.2525
     34 O         141.0639  144.3504  157.9243 O.3     1  UNL1       -0.4714
@<TRIPOS>BOND
     1    33    34    1
     2    34    26    1
     3    26    27   ar
     4    27    28   ar
     5    28    29    1
     6    28    30   ar
     7    30    31   ar
     8    31     1    1
     9     1     2   ar
    10     2     3   ar
    11     3     4   ar
    12     4     5   ar
    13     5     7    1
    14     7     8    2
    15     8     9    1
    16     9    10    2
    17    10    11    1
    18    11    12    1
    19    11    13    2
    20    13    14    1
    21    14    15    1
    22    15    16    2
    23     5     6   ar
    24     6    17    1
    25    17    18    1
    26    18    19    1
    27    19    20    1
    28    20    21    1
    29    20    22    1
    30    22    23    1
    31    31    32   ar
    32    32    26   ar
    33     6     1   ar
    34    23    17    1
    35    16     7    1
    36    15     9    1
    37    21    24    1
    38    21    25    1
@<TRIPOS>MOLECULE
*****
 34 38 0 0 0
SMALL
GASTEIGER

@<TRIPOS>ATOM
      1 C         139.9978  139.9515  161.8423 C.ar    1  UNL1        0.0329
      2 C         138.5469  139.5713  161.8242 C.ar    1  UNL1        0.1001
      3 N         137.7737  139.5025  163.1077 N.ar    1  UNL1       -0.2420
      4 C         138.4513  139.8138  164.4092 C.ar    1  UNL1        0.1078
      5 C         139.9022  140.1939  164.4272 C.ar    1  UNL1        0.1207
      6 C         140.6754  140.2628  163.1438 C.ar    1  UNL1        0.0583
      7 C         140.5798  140.5053  165.7287 C.2     1  UNL1        0.3780
      8 N         140.6592  141.8536  166.3810 N.2     1  UNL1       -0.0307
      9 C         141.4255  141.7046  167.6619 C.2     1  UNL1        0.2343
     10 C         141.8152  142.6945  168.7193 C.2     1  UNL1        0.0794
     11 C         142.5992  142.2438  169.9161 C.2     1  UNL1        0.1402
     12 F         142.9889  143.2337  170.9736 F       1  UNL1       -0.2044
     13 C         142.9934  140.8033  170.0554 C.2     1  UNL1        0.0125
     14 C         142.6037  139.8134  168.9979 C.3     1  UNL1        0.1060
     15 C         141.8197  140.2641  167.8012 C.2     1  UNL1        0.2179
     16 N         141.2971  139.5229  166.6064 N.2     1  UNL1       -0.0346
     17 N         142.1264  140.6430  163.1618 N.pl3   1  UNL1       -0.3071
     18 C         143.1760  139.5876  163.3473 C.3     1  UNL1        0.0921
     19 C         144.6269  139.9677  163.3653 C.3     1  UNL1        0.0369
     20 C         145.0282  141.4033  163.1977 C.3     1  UNL1        0.0542
     21 N         146.4791  141.7834  163.2157 N.3     1  UNL1       -0.3221
     22 C         143.9787  142.4587  163.0122 C.3     1  UNL1        0.0369
     23 C         142.5277  142.0785  162.9942 C.3     1  UNL1        0.0921
     24 H         147.0480  140.9475  163.3505 H       1  UNL1        0.1188
     25 H         146.6498  142.4376  163.9795 H       1  UNL1        0.1188
     26 C         142.3013  138.8884  158.7904 C.ar    1  UNL1        0.1410
     27 C         142.3177  140.1581  157.9918 C.ar    1  UNL1        0.0665
     28 C         141.5609  141.3589  158.4768 C.ar    1  UNL1        0.1432
     29 F         141.5773  142.6286  157.6783 F       1  UNL1       -0.2041
     30 C         140.7875  141.2900  159.7603 C.ar    1  UNL1        0.0299
     31 C         140.7711  140.0204  160.5588 C.ar    1  UNL1        0.0079
     32 C         141.5280  138.8195  160.0738 C.ar    1  UNL1        0.0371
     33 C         142.8648  137.1958  156.9016 C.3     1  UNL1        0.2525
     34 O         143.0582  137.6875  158.3055 O.3     1  UNL1       -0.4714
@<TRIPOS>BOND
     1    33    34    1
     2    34    26    1
     3    26    27   ar
     4    27    28   ar
     5    28    29    1
     6    28    30   ar
     7    30    31   ar
     8    31     1    1
     9     1     2   ar
    10     2     3   ar
    11     3     4   ar
    12     4     5   ar
    13     5     7    1
    14     7     8    2
    15     8     9    1
    16     9    10    2
    17    10    11    1
    18    11    12    1
    19    11    13    2
    20    13    14    1
    21    14    15    1
    22    15    16    2
    23     5     6   ar
    24     6    17    1
    25    17    18    1
    26    18    19    1
    27    19    20    1
    28    20    21    1
    29    20    22    1
    30    22    23    1
    31    31    32   ar
    32    32    26   ar
    33     6     1   ar
    34    23    17    1
    35    16     7    1
    36    15     9    1
    37    21    24    1
    38    21    25    1
@<TRIPOS>MOLECULE
*****
 34 38 0 0 0
SMALL
GASTEIGER

@<TRIPOS>ATOM
      1 C         143.4846  141.7885  161.8068 C.ar    1  UNL1        0.0329
      2 C         144.9812  141.8882  161.8232 C.ar    1  UNL1        0.1001
      3 N         145.7183  141.8916  163.1296 N.ar    1  UNL1       -0.2420
      4 C         144.9588  141.7954  164.4196 C.ar    1  UNL1        0.1078
      5 C         143.4622  141.6957  164.4031 C.ar    1  UNL1        0.1207
      6 C         142.7251  141.6923  163.0967 C.ar    1  UNL1        0.0583
      7 C         142.7027  141.5995  165.6930 C.2     1  UNL1        0.3780
      8 N         142.5241  140.3614  166.5208 N.2     1  UNL1       -0.0307
      9 C         141.6995  140.7212  167.7210 C.2     1  UNL1        0.2343
     10 C         141.2072  139.9077  168.8811 C.2     1  UNL1        0.0794
     11 C         140.3840  140.5546  169.9552 C.2     1  UNL1        0.1402
     12 F         139.8917  139.7410  171.1153 F       1  UNL1       -0.2044
     13 C         140.0530  142.0151  169.8692 C.2     1  UNL1        0.0125
     14 C         140.5452  142.8286  168.7092 C.3     1  UNL1        0.1060
     15 C         141.3685  142.1817  167.6351 C.2     1  UNL1        0.2179
     16 N         141.9885  142.7245  166.3817 N.2     1  UNL1       -0.0346
     17 N         141.2285  141.5926  163.0802 N.pl3   1  UNL1       -0.3071
     18 C         140.5666  140.2466  163.0687 C.3     1  UNL1        0.0921
     19 C         139.0700  140.1469  163.0522 C.3     1  UNL1        0.0369
     20 C         138.2353  141.3933  163.0472 C.3     1  UNL1        0.0542
     21 N         136.7387  141.2936  163.0307 N.3     1  UNL1       -0.3221
     22 C         138.8972  142.7393  163.0587 C.3     1  UNL1        0.0369
     23 C         140.3939  142.8389  163.0752 C.3     1  UNL1        0.0921
     24 H         136.4635  140.3114  163.0246 H       1  UNL1        0.1188
     25 H         136.3765  141.7534  162.1954 H       1  UNL1        0.1188
     26 C         141.6955  140.4822  158.5140 C.ar    1  UNL1        0.1410
     27 C         141.2732  141.7781  157.8876 C.ar    1  UNL1        0.0665
     28 C         141.5882  143.0775  158.5676 C.ar    1  UNL1        0.1432
     29 F         141.1660  144.3734  157.9412 F       1  UNL1       -0.2041
     30 C         142.3253  143.0810  159.8740 C.ar    1  UNL1        0.0299
     31 C         142.7475  141.7851  160.5004 C.ar    1  UNL1        0.0079
     32 C         142.4326  140.4857  159.8204 C.ar    1  UNL1        0.0371
     33 C         142.4321  138.1184  157.7265 C.3     1  UNL1        0.2525
     34 O         141.3805  139.1828  157.8340 O.3     1  UNL1       -0.4714
@<TRIPOS>BOND
     1    33    34    1
     2    34    26    1
     3    26    27   ar
     4    27    28   ar
     5    28    29    1
     6    28    30   ar
     7    30    31   ar
     8    31     1    1
     9     1     2   ar
    10     2     3   ar
    11     3     4   ar
    12     4     5   ar
    13     5     7    1
    14     7     8    2
    15     8     9    1
    16     9    10    2
    17    10    11    1
    18    11    12    1
    19    11    13    2
    20    13    14    1
    21    14    15    1
    22    15    16    2
    23     5     6   ar
    24     6    17    1
    25    17    18    1
    26    18    19    1
    27    19    20    1
    28    20    21    1
    29    20    22    1
    30    22    23    1
    31    31    32   ar
    32    32    26   ar
    33     6     1   ar
    34    23    17    1
    35    16     7    1
    36    15     9    1
    37    21    24    1
    38    21    25    1
@<TRIPOS>MOLECULE
*****
 34 38 0 0 0
SMALL
GASTEIGER

@<TRIPOS>ATOM
      1 C         141.7481  141.9880  161.4227 C.ar    1  UNL1        0.0329
      2 C         142.4705  143.1609  160.8290 C.ar    1  UNL1        0.1001
      3 N         143.0814  144.1972  161.7249 N.ar    1  UNL1       -0.2420
      4 C         142.9698  144.0608  163.2145 C.ar    1  UNL1        0.1078
      5 C         142.2474  142.8879  163.8082 C.ar    1  UNL1        0.1207
      6 C         141.6365  141.8516  162.9123 C.ar    1  UNL1        0.0583
      7 C         142.1359  142.7515  165.2979 C.2     1  UNL1        0.3780
      8 N         140.8847  142.9211  166.1076 N.2     1  UNL1       -0.0307
      9 C         141.2315  142.6959  167.5494 C.2     1  UNL1        0.2343
     10 C         140.4021  142.7321  168.7987 C.2     1  UNL1        0.0794
     11 C         141.0383  142.4595  170.1295 C.2     1  UNL1        0.1402
     12 F         140.2089  142.4958  171.3788 F       1  UNL1       -0.2044
     13 C         142.5039  142.1507  170.2109 C.2     1  UNL1        0.0125
     14 C         143.3333  142.1145  168.9616 C.3     1  UNL1        0.1060
     15 C         142.6971  142.3871  167.6309 C.2     1  UNL1        0.2179
     16 N         143.2560  142.4214  166.2393 N.2     1  UNL1       -0.0346
     17 N         140.9141  140.6787  163.5060 N.pl3   1  UNL1       -0.3071
     18 C         141.6740  139.4405  163.8794 C.3     1  UNL1        0.0921
     19 C         140.9516  138.2676  164.4731 C.3     1  UNL1        0.0369
     20 C         139.4692  138.3329  164.6934 C.3     1  UNL1        0.0542
     21 N         138.7468  137.1600  165.2870 N.3     1  UNL1       -0.3221
     22 C         138.7093  139.5711  164.3200 C.3     1  UNL1        0.0369
     23 C         139.4318  140.7440  163.7263 C.3     1  UNL1        0.0921
     24 H         139.4130  136.4117  165.4783 H       1  UNL1        0.1188
     25 H         138.0411  136.8273  164.6300 H       1  UNL1        0.1188
     26 C         139.1057  140.0634  159.1725 C.ar    1  UNL1        0.1410
     27 C         139.9152  138.8788  158.7350 C.ar    1  UNL1        0.0665
     28 C         141.3357  138.7306  159.1935 C.ar    1  UNL1        0.1432
     29 F         142.1453  137.5460  158.7561 F       1  UNL1       -0.2041
     30 C         141.9467  139.7670  160.0894 C.ar    1  UNL1        0.0299
     31 C         141.1371  140.9516  160.5268 C.ar    1  UNL1        0.0079
     32 C         139.7166  141.0998  160.0683 C.ar    1  UNL1        0.0371
     33 C         137.3802  140.9481  157.4432 C.3     1  UNL1        0.2525
     34 O         137.6852  140.2116  158.7140 O.3     1  UNL1       -0.4714
@<TRIPOS>BOND
     1    33    34    1
     2    34    26    1
     3    26    27   ar
     4    27    28   ar
     5    28    29    1
     6    28    30   ar
     7    30    31   ar
     8    31     1    1
     9     1     2   ar
    10     2     3   ar
    11     3     4   ar
    12     4     5   ar
    13     5     7    1
    14     7     8    2
    15     8     9    1
    16     9    10    2
    17    10    11    1
    18    11    12    1
    19    11    13    2
    20    13    14    1
    21    14    15    1
    22    15    16    2
    23     5     6   ar
    24     6    17    1
    25    17    18    1
    26    18    19    1
    27    19    20    1
    28    20    21    1
    29    20    22    1
    30    22    23    1
    31    31    32   ar
    32    32    26   ar
    33     6     1   ar
    34    23    17    1
    35    16     7    1
    36    15     9    1
    37    21    24    1
    38    21    25    1
