@<TRIPOS>MOLECULE
*****
 36 41 0 0 0
SMALL
GASTEIGER

@<TRIPOS>ATOM
      1 C         139.2717  144.3388  162.8926 C.ar    1  UNL1        0.0899
      2 C         138.4936  144.2868  164.1740 C.ar    1  UNL1        0.1063
      3 N         137.9910  142.9725  164.6934 N.ar    1  UNL1       -0.2291
      4 C         138.2664  141.7101  163.9313 C.ar    1  UNL1        0.1299
      5 C         139.0444  141.7621  162.6500 C.ar    1  UNL1        0.0503
      6 C         139.5470  143.0765  162.1306 C.ar    1  UNL1        0.0895
      7 N         140.2808  142.8180  160.8481 N.2     1  UNL1       -0.2490
      8 C         140.2316  141.3439  160.5748 C.2     1  UNL1        0.0635
      9 C         140.7839  140.5116  159.4559 C.3     1  UNL1        0.0736
     10 C         140.5721  139.0267  159.4505 C.2     1  UNL1        0.0030
     11 C         139.8079  138.3741  160.5642 C.2     1  UNL1       -0.0023
     12 C         139.2556  139.2064  161.6832 C.2     1  UNL1        0.0011
     13 C         139.4675  140.6913  161.6885 C.2     1  UNL1        0.0180
     14 C         141.1244  138.1943  158.3315 C.ar    1  UNL1        0.0970
     15 C         142.5892  137.8743  158.2872 C.ar    1  UNL1        0.1190
     16 N         143.1415  137.0419  157.1683 N.ar    1  UNL1       -0.2264
     17 C         142.2290  136.5295  156.0936 C.ar    1  UNL1        0.1448
     18 N         142.7814  135.6971  154.9746 N.pl3   1  UNL1       -0.3414
     19 C         140.7642  136.8495  156.1379 C.ar    1  UNL1        0.1326
     20 N         140.2119  137.6819  157.2569 N.ar    1  UNL1       -0.2397
     21 H         143.7428  135.4871  154.9456 H       1  UNL1        0.1438
     22 H         142.1825  135.3608  154.2693 H       1  UNL1        0.1438
     23 N         141.0303  146.2507  162.9348 N.am    1  UNL1       -0.3252
     24 C         139.7743  145.6532  162.3732 C.2     1  UNL1        0.2457
     25 O         139.0209  146.3701  161.2922 O.2     1  UNL1       -0.2703
     26 H         141.3602  147.1134  162.5939 H       1  UNL1        0.1453
     27 H         141.5247  145.7802  163.6443 H       1  UNL1        0.1453
     28 N         137.7637  140.3957  164.4508 N.pl3   1  UNL1       -0.3197
     29 H         136.8636  140.0811  164.2054 H       1  UNL1        0.1481
     30 C         138.6323  139.5606  165.3442 C.3     1  UNL1        0.0702
     31 C         138.0118  138.5463  166.2586 C.3     1  UNL1        0.0179
     32 C         137.6948  137.1182  166.5902 C.3     1  UNL1        0.0017
     33 C         137.2540  138.2175  167.5106 C.3     1  UNL1        0.0017
     34 C         140.1214  139.7399  165.3233 C.3     1  UNL1        0.0179
     35 C         141.4832  139.2514  164.9271 C.3     1  UNL1        0.0017
     36 C         141.3389  140.5389  165.6832 C.3     1  UNL1        0.0017
@<TRIPOS>BOND
     1    23    24   am
     2    24    25    2
     3    24     1    1
     4     1     2   ar
     5     2     3   ar
     6     3     4   ar
     7     4    28    1
     8    28    30    1
     9    30    31    1
    10    31    32    1
    11    32    33    1
    12    30    34    1
    13    34    35    1
    14    35    36    1
    15     4     5   ar
    16     5     6   ar
    17     6     7    1
    18     7     8    2
    19     8     9    1
    20     9    10    1
    21    10    14    1
    22    14    15   ar
    23    15    16   ar
    24    16    17   ar
    25    17    18    1
    26    17    19   ar
    27    19    20   ar
    28    10    11    2
    29    11    12    1
    30    12    13    2
    31     6     1   ar
    32    13     8    1
    33    33    31    1
    34    36    34    1
    35    13     5    1
    36    20    14   ar
    37    23    26    1
    38    23    27    1
    39    28    29    1
    40    18    21    1
    41    18    22    1
@<TRIPOS>MOLECULE
*****
 36 41 0 0 0
SMALL
GASTEIGER

@<TRIPOS>ATOM
      1 C         138.5541  138.9355  166.6817 C.ar    1  UNL1        0.0899
      2 C         138.9218  139.9640  167.7098 C.ar    1  UNL1        0.1063
      3 N         139.9130  141.0386  167.3744 N.ar    1  UNL1       -0.2291
      4 C         140.5367  141.0848  166.0110 C.ar    1  UNL1        0.1299
      5 C         140.1690  140.0563  164.9829 C.ar    1  UNL1        0.0503
      6 C         139.1777  138.9816  165.3182 C.ar    1  UNL1        0.0895
      7 N         139.0119  138.1102  164.1087 N.2     1  UNL1       -0.2490
      8 C         139.9007  138.6462  163.0258 C.2     1  UNL1        0.0635
      9 C         140.1513  138.1945  161.6176 C.3     1  UNL1        0.0736
     10 C         141.1170  138.9455  160.7496 C.2     1  UNL1        0.0030
     11 C         141.8321  140.1483  161.2899 C.2     1  UNL1       -0.0023
     12 C         141.5815  140.6000  162.6981 C.2     1  UNL1        0.0011
     13 C         140.6159  139.8490  163.5661 C.2     1  UNL1        0.0180
     14 C         141.3675  138.4938  159.3413 C.ar    1  UNL1        0.0970
     15 C         142.7604  138.1564  158.8986 C.ar    1  UNL1        0.1190
     16 N         143.0111  137.7047  157.4904 N.ar    1  UNL1       -0.2264
     17 C         141.8688  137.5904  156.5248 C.ar    1  UNL1        0.1448
     18 N         142.1194  137.1387  155.1166 N.pl3   1  UNL1       -0.3414
     19 C         140.4759  137.9278  156.9676 C.ar    1  UNL1        0.1326
     20 N         140.2253  138.3795  158.3759 N.ar    1  UNL1       -0.2397
     21 H         143.0336  136.9173  154.8260 H       1  UNL1        0.1438
     22 H         141.3697  137.0637  154.4829 H       1  UNL1        0.1438
     23 N         137.5739  136.5670  166.2584 N.am    1  UNL1       -0.3252
     24 C         137.5628  137.8609  167.0171 C.2     1  UNL1        0.2457
     25 O         136.5603  138.0801  168.1112 O.2     1  UNL1       -0.2703
     26 H         136.9233  135.8617  166.4785 H       1  UNL1        0.1453
     27 H         138.2318  136.4231  165.5403 H       1  UNL1        0.1453
     28 N         141.5280  142.1595  165.6756 N.pl3   1  UNL1       -0.3197
     29 H         142.4655  142.0716  165.9632 H       1  UNL1        0.1481
     30 C         141.0909  143.3681  164.9022 C.3     1  UNL1        0.0702
     31 C         139.6658  143.8302  164.9754 C.3     1  UNL1        0.0179
     32 C         138.6500  144.8457  165.4079 C.3     1  UNL1        0.0017
     33 C         138.2131  143.6153  164.6697 C.3     1  UNL1        0.0017
     34 C         142.0788  144.1145  164.0556 C.3     1  UNL1        0.0179
     35 C         142.5881  144.5173  162.7033 C.3     1  UNL1        0.0017
     36 C         143.2809  145.0046  163.9413 C.3     1  UNL1        0.0017
@<TRIPOS>BOND
     1    23    24   am
     2    24    25    2
     3    24     1    1
     4     1     2   ar
     5     2     3   ar
     6     3     4   ar
     7     4    28    1
     8    28    30    1
     9    30    31    1
    10    31    32    1
    11    32    33    1
    12    30    34    1
    13    34    35    1
    14    35    36    1
    15     4     5   ar
    16     5     6   ar
    17     6     7    1
    18     7     8    2
    19     8     9    1
    20     9    10    1
    21    10    14    1
    22    14    15   ar
    23    15    16   ar
    24    16    17   ar
    25    17    18    1
    26    17    19   ar
    27    19    20   ar
    28    10    11    2
    29    11    12    1
    30    12    13    2
    31     6     1   ar
    32    13     8    1
    33    33    31    1
    34    36    34    1
    35    13     5    1
    36    20    14   ar
    37    23    26    1
    38    23    27    1
    39    28    29    1
    40    18    21    1
    41    18    22    1
@<TRIPOS>MOLECULE
*****
 36 41 0 0 0
SMALL
GASTEIGER

@<TRIPOS>ATOM
      1 C         138.4873  138.8979  166.9365 C.ar    1  UNL1        0.0899
      2 C         138.8719  139.9094  167.9751 C.ar    1  UNL1        0.1063
      3 N         139.8857  140.9670  167.6529 N.ar    1  UNL1       -0.2291
      4 C         140.5148  141.0131  166.2919 C.ar    1  UNL1        0.1299
      5 C         140.1302  140.0016  165.2533 C.ar    1  UNL1        0.0503
      6 C         139.1164  138.9440  165.5755 C.ar    1  UNL1        0.0895
      7 N         138.9375  138.0871  164.3575 N.2     1  UNL1       -0.2490
      8 C         139.8406  138.6150  163.2824 C.2     1  UNL1        0.0635
      9 C         140.0869  138.1712  161.8710 C.3     1  UNL1        0.0736
     10 C         141.0704  138.9106  161.0131 C.2     1  UNL1        0.0030
     11 C         141.8075  140.0939  161.5668 C.2     1  UNL1       -0.0023
     12 C         141.5612  140.5377  162.9782 C.2     1  UNL1        0.0011
     13 C         140.5777  139.7983  163.8361 C.2     1  UNL1        0.0180
     14 C         141.3168  138.4668  159.6016 C.ar    1  UNL1        0.0970
     15 C         142.7028  138.0981  159.1625 C.ar    1  UNL1        0.1190
     16 N         142.9492  137.6543  157.7510 N.ar    1  UNL1       -0.2264
     17 C         141.8096  137.5792  156.7786 C.ar    1  UNL1        0.1448
     18 N         142.0560  137.1355  155.3671 N.pl3   1  UNL1       -0.3414
     19 C         140.4235  137.9480  157.2177 C.ar    1  UNL1        0.1326
     20 N         140.1771  138.3918  158.6292 N.ar    1  UNL1       -0.2397
     21 H         142.9657  136.8934  155.0789 H       1  UNL1        0.1438
     22 H         141.3080  137.0862  154.7289 H       1  UNL1        0.1438
     23 N         137.3847  136.6043  166.4136 N.am    1  UNL1       -0.3252
     24 C         137.4736  137.8403  167.2587 C.2     1  UNL1        0.2457
     25 O         136.5487  138.0188  168.4262 O.2     1  UNL1       -0.2703
     26 H         136.7194  135.9102  166.6252 H       1  UNL1        0.1453
     27 H         137.9917  136.4872  165.6475 H       1  UNL1        0.1453
     28 N         141.5286  142.0707  165.9697 N.pl3   1  UNL1       -0.3197
     29 H         142.4486  141.9910  166.3109 H       1  UNL1        0.1481
     30 C         141.1404  143.2499  165.1277 C.3     1  UNL1        0.0702
     31 C         142.1824  143.9782  164.3315 C.3     1  UNL1        0.0179
     32 C         143.5147  143.9945  163.6425 C.3     1  UNL1        0.0017
     33 C         142.6547  145.2235  163.6415 C.3     1  UNL1        0.0017
     34 C         139.7106  143.7007  165.0818 C.3     1  UNL1        0.0179
     35 C         138.2839  143.4579  164.6869 C.3     1  UNL1        0.0017
     36 C         138.6604  144.7243  165.3973 C.3     1  UNL1        0.0017
@<TRIPOS>BOND
     1    23    24   am
     2    24    25    2
     3    24     1    1
     4     1     2   ar
     5     2     3   ar
     6     3     4   ar
     7     4    28    1
     8    28    30    1
     9    30    31    1
    10    31    32    1
    11    32    33    1
    12    30    34    1
    13    34    35    1
    14    35    36    1
    15     4     5   ar
    16     5     6   ar
    17     6     7    1
    18     7     8    2
    19     8     9    1
    20     9    10    1
    21    10    14    1
    22    14    15   ar
    23    15    16   ar
    24    16    17   ar
    25    17    18    1
    26    17    19   ar
    27    19    20   ar
    28    10    11    2
    29    11    12    1
    30    12    13    2
    31     6     1   ar
    32    13     8    1
    33    33    31    1
    34    36    34    1
    35    13     5    1
    36    20    14   ar
    37    23    26    1
    38    23    27    1
    39    28    29    1
    40    18    21    1
    41    18    22    1
@<TRIPOS>MOLECULE
*****
 36 41 0 0 0
SMALL
GASTEIGER

@<TRIPOS>ATOM
      1 C         139.3933  144.2019  162.8917 C.ar    1  UNL1        0.0899
      2 C         138.5977  144.0578  164.1552 C.ar    1  UNL1        0.1063
      3 N         138.1128  142.7053  164.5859 N.ar    1  UNL1       -0.2291
      4 C         138.4235  141.4969  163.7533 C.ar    1  UNL1        0.1299
      5 C         139.2190  141.6410  162.4898 C.ar    1  UNL1        0.0503
      6 C         139.7039  142.9935  162.0591 C.ar    1  UNL1        0.0895
      7 N         140.4612  142.8271  160.7750 N.2     1  UNL1       -0.2490
      8 C         140.4443  141.3717  160.4122 C.2     1  UNL1        0.0635
      9 C         141.0288  140.6193  159.2536 C.3     1  UNL1        0.0736
     10 C         140.8455  139.1338  159.1550 C.2     1  UNL1        0.0030
     11 C         140.0778  138.4008  160.2148 C.2     1  UNL1       -0.0023
     12 C         139.4933  139.1532  161.3734 C.2     1  UNL1        0.0011
     13 C         139.6766  140.6387  161.4720 C.2     1  UNL1        0.0180
     14 C         141.4300  138.3813  157.9964 C.ar    1  UNL1        0.0970
     15 C         142.8946  138.4924  157.6921 C.ar    1  UNL1        0.1190
     16 N         143.4791  137.7400  156.5336 N.ar    1  UNL1       -0.2264
     17 C         142.5990  136.8763  155.6794 C.ar    1  UNL1        0.1448
     18 N         143.1835  136.1238  154.5209 N.pl3   1  UNL1       -0.3414
     19 C         141.1344  136.7652  155.9838 C.ar    1  UNL1        0.1326
     20 N         140.5499  137.5177  157.1423 N.ar    1  UNL1       -0.2397
     21 H         144.1447  136.1968  154.3212 H       1  UNL1        0.1438
     22 H         142.6058  135.5570  153.9603 H       1  UNL1        0.1438
     23 N         141.0948  146.1540  163.1014 N.am    1  UNL1       -0.3252
     24 C         139.8782  145.5544  162.4609 C.2     1  UNL1        0.2457
     25 O         139.1465  146.3074  161.3896 O.2     1  UNL1       -0.2703
     26 H         141.4130  147.0417  162.8187 H       1  UNL1        0.1453
     27 H         141.5750  145.6599  163.8046 H       1  UNL1        0.1453
     28 N         137.9385  140.1444  164.1841 N.pl3   1  UNL1       -0.3197
     29 H         137.0902  139.7903  163.8316 H       1  UNL1        0.1481
     30 C         138.7461  139.3313  165.1520 C.3     1  UNL1        0.0702
     31 C         140.2123  139.1216  164.9145 C.3     1  UNL1        0.0179
     32 C         141.3444  138.2398  164.4778 C.3     1  UNL1        0.0017
     33 C         141.6196  139.6400  164.9400 C.3     1  UNL1        0.0017
     34 C         138.0877  138.7281  166.3571 C.3     1  UNL1        0.0179
     35 C         137.6935  138.8146  167.8019 C.3     1  UNL1        0.0017
     36 C         137.3414  137.5968  167.0000 C.3     1  UNL1        0.0017
@<TRIPOS>BOND
     1    23    24   am
     2    24    25    2
     3    24     1    1
     4     1     2   ar
     5     2     3   ar
     6     3     4   ar
     7     4    28    1
     8    28    30    1
     9    30    31    1
    10    31    32    1
    11    32    33    1
    12    30    34    1
    13    34    35    1
    14    35    36    1
    15     4     5   ar
    16     5     6   ar
    17     6     7    1
    18     7     8    2
    19     8     9    1
    20     9    10    1
    21    10    14    1
    22    14    15   ar
    23    15    16   ar
    24    16    17   ar
    25    17    18    1
    26    17    19   ar
    27    19    20   ar
    28    10    11    2
    29    11    12    1
    30    12    13    2
    31     6     1   ar
    32    13     8    1
    33    33    31    1
    34    36    34    1
    35    13     5    1
    36    20    14   ar
    37    23    26    1
    38    23    27    1
    39    28    29    1
    40    18    21    1
    41    18    22    1
@<TRIPOS>MOLECULE
*****
 36 41 0 0 0
SMALL
GASTEIGER

@<TRIPOS>ATOM
      1 C         142.3099  143.2831  163.8787 C.ar    1  UNL1        0.0899
      2 C         141.4306  143.2636  165.0938 C.ar    1  UNL1        0.1063
      3 N         140.3557  142.2257  165.2251 N.ar    1  UNL1       -0.2291
      4 C         140.1601  141.2072  164.1413 C.ar    1  UNL1        0.1299
      5 C         141.0394  141.2267  162.9263 C.ar    1  UNL1        0.0503
      6 C         142.1143  142.2647  162.7949 C.ar    1  UNL1        0.0895
      7 N         142.8218  142.0369  161.4921 N.2     1  UNL1       -0.2490
      8 C         142.1842  140.8582  160.8182 C.2     1  UNL1        0.0635
      9 C         142.4645  140.1762  159.5120 C.3     1  UNL1        0.0736
     10 C         141.6430  138.9934  159.0921 C.2     1  UNL1        0.0030
     11 C         140.5414  138.4927  159.9785 C.2     1  UNL1       -0.0023
     12 C         140.2612  139.1747  161.2847 C.2     1  UNL1        0.0011
     13 C         141.0826  140.3575  161.7046 C.2     1  UNL1        0.0180
     14 C         141.9232  138.3113  157.7858 C.ar    1  UNL1        0.0970
     15 C         140.8356  137.5479  157.0899 C.ar    1  UNL1        0.1190
     16 N         141.1157  136.8659  155.7837 N.ar    1  UNL1       -0.2264
     17 C         142.4836  136.9471  155.1733 C.ar    1  UNL1        0.1448
     18 N         142.7637  136.2650  153.8671 N.pl3   1  UNL1       -0.3414
     19 C         143.5712  137.7104  155.8693 C.ar    1  UNL1        0.1326
     20 N         143.2910  138.3925  157.1756 N.ar    1  UNL1       -0.2397
     21 H         142.0498  135.7640  153.4104 H       1  UNL1        0.1438
     22 H         143.6614  136.3183  153.4666 H       1  UNL1        0.1438
     23 N         143.5052  145.1203  162.4839 N.am    1  UNL1       -0.3252
     24 C         143.3847  144.3211  163.7474 C.2     1  UNL1        0.2457
     25 O         144.3392  144.5599  164.8797 O.2     1  UNL1       -0.2703
     26 H         144.2107  145.8016  162.3977 H       1  UNL1        0.1453
     27 H         142.8788  144.9637  161.7407 H       1  UNL1        0.1453
     28 N         139.0852  140.1692  164.2727 N.pl3   1  UNL1       -0.3197
     29 H         138.2081  140.3125  163.8492 H       1  UNL1        0.1481
     30 C         139.3467  138.9129  165.0495 C.3     1  UNL1        0.0702
     31 C         140.5628  138.0868  164.7519 C.3     1  UNL1        0.0179
     32 C         141.2026  136.9182  164.0626 C.3     1  UNL1        0.0017
     33 C         142.0294  137.8244  164.9258 C.3     1  UNL1        0.0017
     34 C         138.3922  138.4828  166.1236 C.3     1  UNL1        0.0179
     35 C         137.5392  137.4228  166.7552 C.3     1  UNL1        0.0017
     36 C         137.5919  138.7976  167.3526 C.3     1  UNL1        0.0017
@<TRIPOS>BOND
     1    23    24   am
     2    24    25    2
     3    24     1    1
     4     1     2   ar
     5     2     3   ar
     6     3     4   ar
     7     4    28    1
     8    28    30    1
     9    30    31    1
    10    31    32    1
    11    32    33    1
    12    30    34    1
    13    34    35    1
    14    35    36    1
    15     4     5   ar
    16     5     6   ar
    17     6     7    1
    18     7     8    2
    19     8     9    1
    20     9    10    1
    21    10    14    1
    22    14    15   ar
    23    15    16   ar
    24    16    17   ar
    25    17    18    1
    26    17    19   ar
    27    19    20   ar
    28    10    11    2
    29    11    12    1
    30    12    13    2
    31     6     1   ar
    32    13     8    1
    33    33    31    1
    34    36    34    1
    35    13     5    1
    36    20    14   ar
    37    23    26    1
    38    23    27    1
    39    28    29    1
    40    18    21    1
    41    18    22    1
@<TRIPOS>MOLECULE
*****
 36 41 0 0 0
SMALL
GASTEIGER

@<TRIPOS>ATOM
      1 C         142.6051  142.9655  163.2264 C.ar    1  UNL1        0.0899
      2 C         141.9741  143.0731  164.5829 C.ar    1  UNL1        0.1063
      3 N         140.8214  142.1849  164.9465 N.ar    1  UNL1       -0.2291
      4 C         140.2997  141.1889  163.9536 C.ar    1  UNL1        0.1299
      5 C         140.9306  141.0813  162.5970 C.ar    1  UNL1        0.0503
      6 C         142.0833  141.9695  162.2334 C.ar    1  UNL1        0.0895
      7 N         142.4995  141.6380  160.8310 N.2     1  UNL1       -0.2490
      8 C         141.6040  140.5449  160.3278 C.2     1  UNL1        0.0635
      9 C         141.5462  139.8184  159.0168 C.3     1  UNL1        0.0736
     10 C         140.5188  138.7478  158.7973 C.2     1  UNL1        0.0030
     11 C         139.5492  138.4037  159.8888 C.2     1  UNL1       -0.0023
     12 C         139.6070  139.1302  161.1998 C.2     1  UNL1        0.0011
     13 C         140.6344  140.2008  161.4193 C.2     1  UNL1        0.0180
     14 C         140.4610  138.0213  157.4862 C.ar    1  UNL1        0.0970
     15 C         141.6741  137.3043  156.9719 C.ar    1  UNL1        0.1190
     16 N         141.6164  136.5778  155.6609 N.ar    1  UNL1       -0.2264
     17 C         140.3455  136.5682  154.8641 C.ar    1  UNL1        0.1448
     18 N         140.2877  135.8417  153.5531 N.pl3   1  UNL1       -0.3414
     19 C         139.1324  137.2851  155.3783 C.ar    1  UNL1        0.1326
     20 N         139.1902  138.0117  156.6894 N.ar    1  UNL1       -0.2397
     21 H         141.0839  135.3711  153.2156 H       1  UNL1        0.1438
     22 H         139.4536  135.8353  153.0301 H       1  UNL1        0.1438
     23 N         144.8550  143.3355  161.9811 N.am    1  UNL1       -0.3252
     24 C         143.7578  143.8537  162.8628 C.2     1  UNL1        0.2457
     25 O         143.8133  145.2604  163.3809 O.2     1  UNL1       -0.2703
     26 H         145.6115  143.9185  161.7424 H       1  UNL1        0.1453
     27 H         144.8186  142.4123  161.6410 H       1  UNL1        0.1453
     28 N         139.1469  140.3006  164.3173 N.pl3   1  UNL1       -0.3197
     29 H         138.2274  140.5700  164.0910 H       1  UNL1        0.1481
     30 C         139.3952  139.0019  165.0256 C.3     1  UNL1        0.0702
     31 C         138.4437  138.5322  166.0858 C.3     1  UNL1        0.0179
     32 C         137.6085  137.4435  166.6917 C.3     1  UNL1        0.0017
     33 C         137.6310  138.8071  167.3162 C.3     1  UNL1        0.0017
     34 C         140.5949  138.1731  164.6739 C.3     1  UNL1        0.0179
     35 C         141.2221  137.0686  163.8759 C.3     1  UNL1        0.0017
     36 C         142.0457  137.8420  164.8627 C.3     1  UNL1        0.0017
@<TRIPOS>BOND
     1    23    24   am
     2    24    25    2
     3    24     1    1
     4     1     2   ar
     5     2     3   ar
     6     3     4   ar
     7     4    28    1
     8    28    30    1
     9    30    31    1
    10    31    32    1
    11    32    33    1
    12    30    34    1
    13    34    35    1
    14    35    36    1
    15     4     5   ar
    16     5     6   ar
    17     6     7    1
    18     7     8    2
    19     8     9    1
    20     9    10    1
    21    10    14    1
    22    14    15   ar
    23    15    16   ar
    24    16    17   ar
    25    17    18    1
    26    17    19   ar
    27    19    20   ar
    28    10    11    2
    29    11    12    1
    30    12    13    2
    31     6     1   ar
    32    13     8    1
    33    33    31    1
    34    36    34    1
    35    13     5    1
    36    20    14   ar
    37    23    26    1
    38    23    27    1
    39    28    29    1
    40    18    21    1
    41    18    22    1
@<TRIPOS>MOLECULE
*****
 36 41 0 0 0
SMALL
GASTEIGER

@<TRIPOS>ATOM
      1 C         140.8206  144.1496  161.7611 C.ar    1  UNL1        0.0899
      2 C         140.8098  144.1966  163.2603 C.ar    1  UNL1        0.1063
      3 N         141.0709  142.9493  164.0516 N.ar    1  UNL1       -0.2291
      4 C         141.3428  141.6551  163.3438 C.ar    1  UNL1        0.1299
      5 C         141.3536  141.6081  161.8446 C.ar    1  UNL1        0.0503
      6 C         141.0925  142.8554  161.0532 C.ar    1  UNL1        0.0895
      7 N         141.1671  142.5043  159.5968 N.2     1  UNL1       -0.2490
      8 C         141.4743  141.0401  159.4880 C.2     1  UNL1        0.0635
      9 C         141.6639  140.1397  158.3035 C.3     1  UNL1        0.0736
     10 C         141.9688  138.6854  158.5081 C.2     1  UNL1        0.0030
     11 C         142.0841  138.1315  159.8974 C.2     1  UNL1       -0.0023
     12 C         141.8944  139.0319  161.0819 C.2     1  UNL1        0.0011
     13 C         141.5896  140.4862  160.8772 C.2     1  UNL1        0.0180
     14 C         142.1585  137.7848  157.3236 C.ar    1  UNL1        0.0970
     15 C         140.9775  137.0907  156.7124 C.ar    1  UNL1        0.1190
     16 N         141.1671  136.1903  155.5279 N.ar    1  UNL1       -0.2264
     17 C         142.5377  135.9838  154.9545 C.ar    1  UNL1        0.1448
     18 N         142.7273  135.0833  153.7699 N.pl3   1  UNL1       -0.3414
     19 C         143.7187  136.6779  155.5656 C.ar    1  UNL1        0.1326
     20 N         143.5291  137.5784  156.7502 N.ar    1  UNL1       -0.2397
     21 H         141.9522  134.6278  153.3688 H       1  UNL1        0.1438
     22 H         143.6269  134.9478  153.3936 H       1  UNL1        0.1438
     23 N         141.4155  145.7246  159.7825 N.am    1  UNL1       -0.3252
     24 C         140.5595  145.3968  160.9698 C.2     1  UNL1        0.2457
     25 O         139.4424  146.3163  161.3658 O.2     1  UNL1       -0.2703
     26 H         141.2441  146.5433  159.2631 H       1  UNL1        0.1453
     27 H         142.1486  145.1212  159.5225 H       1  UNL1        0.1453
     28 N         141.6039  140.4078  164.1352 N.pl3   1  UNL1       -0.3197
     29 H         140.8655  139.7879  164.3349 H       1  UNL1        0.1481
     30 C         142.9899  140.1051  164.6223 C.3     1  UNL1        0.0702
     31 C         144.1792  140.6276  163.8723 C.3     1  UNL1        0.0179
     32 C         144.8929  140.8709  162.5755 C.3     1  UNL1        0.0017
     33 C         145.5254  141.2891  163.8697 C.3     1  UNL1        0.0017
     34 C         143.1867  139.2801  165.8594 C.3     1  UNL1        0.0179
     35 C         142.9500  139.0578  167.3239 C.3     1  UNL1        0.0017
     36 C         143.7642  138.0733  166.5379 C.3     1  UNL1        0.0017
@<TRIPOS>BOND
     1    23    24   am
     2    24    25    2
     3    24     1    1
     4     1     2   ar
     5     2     3   ar
     6     3     4   ar
     7     4    28    1
     8    28    30    1
     9    30    31    1
    10    31    32    1
    11    32    33    1
    12    30    34    1
    13    34    35    1
    14    35    36    1
    15     4     5   ar
    16     5     6   ar
    17     6     7    1
    18     7     8    2
    19     8     9    1
    20     9    10    1
    21    10    14    1
    22    14    15   ar
    23    15    16   ar
    24    16    17   ar
    25    17    18    1
    26    17    19   ar
    27    19    20   ar
    28    10    11    2
    29    11    12    1
    30    12    13    2
    31     6     1   ar
    32    13     8    1
    33    33    31    1
    34    36    34    1
    35    13     5    1
    36    20    14   ar
    37    23    26    1
    38    23    27    1
    39    28    29    1
    40    18    21    1
    41    18    22    1
@<TRIPOS>MOLECULE
*****
 36 41 0 0 0
SMALL
GASTEIGER

@<TRIPOS>ATOM
      1 C         142.2775  143.7677  163.9681 C.ar    1  UNL1        0.0899
      2 C         141.7261  143.1864  165.2362 C.ar    1  UNL1        0.1063
      3 N         140.4288  142.4338  165.2142 N.ar    1  UNL1       -0.2291
      4 C         139.6827  142.2626  163.9242 C.ar    1  UNL1        0.1299
      5 C         140.2341  142.8440  162.6561 C.ar    1  UNL1        0.0503
      6 C         141.5315  143.5965  162.6781 C.ar    1  UNL1        0.0895
      7 N         141.8254  144.0542  161.2802 N.2     1  UNL1       -0.2490
      8 C         140.7098  143.5846  160.3943 C.2     1  UNL1        0.0635
      9 C         140.4624  143.7415  158.9232 C.3     1  UNL1        0.0736
     10 C         139.2315  143.1503  158.3025 C.2     1  UNL1        0.0030
     11 C         138.2479  142.4023  159.1529 C.2     1  UNL1       -0.0023
     12 C         138.4953  142.2455  160.6240 C.2     1  UNL1        0.0011
     13 C         139.7262  142.8366  161.2447 C.2     1  UNL1        0.0180
     14 C         138.9841  143.3072  156.8313 C.ar    1  UNL1        0.0970
     15 C         139.2070  144.6353  156.1707 C.ar    1  UNL1        0.1190
     16 N         138.9596  144.7922  154.6997 N.ar    1  UNL1       -0.2264
     17 C         138.4892  143.6209  153.8891 C.ar    1  UNL1        0.1448
     18 N         138.2418  143.7777  152.4180 N.pl3   1  UNL1       -0.3414
     19 C         138.2663  142.2928  154.5497 C.ar    1  UNL1        0.1326
     20 N         138.5137  142.1359  156.0209 N.ar    1  UNL1       -0.2397
     21 H         138.3882  144.6494  151.9844 H       1  UNL1        0.1438
     22 H         137.9331  143.0090  151.8860 H       1  UNL1        0.1438
     23 N         143.9320  145.4326  162.8543 N.am    1  UNL1       -0.3252
     24 C         143.5749  144.5202  163.9900 C.2     1  UNL1        0.2457
     25 O         144.5152  144.3604  165.1478 O.2     1  UNL1       -0.2703
     26 H         144.7835  145.9265  162.8687 H       1  UNL1        0.1453
     27 H         143.3149  145.5375  162.0945 H       1  UNL1        0.1453
     28 N         138.3853  141.5101  163.9023 N.pl3   1  UNL1       -0.3197
     29 H         137.5431  141.9861  163.7196 H       1  UNL1        0.1481
     30 C         138.3711  140.0322  164.1587 C.3     1  UNL1        0.0702
     31 C         138.3388  139.0716  163.0072 C.3     1  UNL1        0.0179
     32 C         138.8849  137.8612  162.3094 C.3     1  UNL1        0.0017
     33 C         137.7368  138.6180  161.7103 C.3     1  UNL1        0.0017
     34 C         138.3892  139.5150  165.5665 C.3     1  UNL1        0.0179
     35 C         139.0046  139.4924  166.9344 C.3     1  UNL1        0.0017
     36 C         137.8053  138.6418  166.6374 C.3     1  UNL1        0.0017
@<TRIPOS>BOND
     1    23    24   am
     2    24    25    2
     3    24     1    1
     4     1     2   ar
     5     2     3   ar
     6     3     4   ar
     7     4    28    1
     8    28    30    1
     9    30    31    1
    10    31    32    1
    11    32    33    1
    12    30    34    1
    13    34    35    1
    14    35    36    1
    15     4     5   ar
    16     5     6   ar
    17     6     7    1
    18     7     8    2
    19     8     9    1
    20     9    10    1
    21    10    14    1
    22    14    15   ar
    23    15    16   ar
    24    16    17   ar
    25    17    18    1
    26    17    19   ar
    27    19    20   ar
    28    10    11    2
    29    11    12    1
    30    12    13    2
    31     6     1   ar
    32    13     8    1
    33    33    31    1
    34    36    34    1
    35    13     5    1
    36    20    14   ar
    37    23    26    1
    38    23    27    1
    39    28    29    1
    40    18    21    1
    41    18    22    1
@<TRIPOS>MOLECULE
*****
 36 41 0 0 0
SMALL
GASTEIGER

@<TRIPOS>ATOM
      1 C         142.9651  139.6818  159.8443 C.ar    1  UNL1        0.0899
      2 C         143.0173  140.5528  158.6241 C.ar    1  UNL1        0.1063
      3 N         142.9562  142.0449  158.7646 N.ar    1  UNL1       -0.2291
      4 C         142.8430  142.6661  160.1252 C.ar    1  UNL1        0.1299
      5 C         142.7908  141.7952  161.3454 C.ar    1  UNL1        0.0503
      6 C         142.8519  140.3031  161.2049 C.ar    1  UNL1        0.0895
      7 N         142.7800  139.7049  162.5786 N.2     1  UNL1       -0.2490
      8 C         142.6744  140.8273  163.5680 C.2     1  UNL1        0.0635
      9 C         142.5731  140.8399  165.0645 C.3     1  UNL1        0.0736
     10 C         142.4785  142.1444  165.7988 C.2     1  UNL1        0.0030
     11 C         142.4852  143.4363  165.0366 C.2     1  UNL1       -0.0023
     12 C         142.5865  143.4238  163.5402 C.2     1  UNL1        0.0011
     13 C         142.6812  142.1192  162.8058 C.2     1  UNL1        0.0180
     14 C         142.3771  142.1570  167.2954 C.ar    1  UNL1        0.0970
     15 C         141.0803  141.8055  167.9622 C.ar    1  UNL1        0.1190
     16 N         140.9789  141.8182  169.4587 N.ar    1  UNL1       -0.2264
     17 C         142.1744  142.1823  170.2884 C.ar    1  UNL1        0.1448
     18 N         142.0730  142.1949  171.7849 N.pl3   1  UNL1       -0.3414
     19 C         143.4712  142.5338  169.6216 C.ar    1  UNL1        0.1326
     20 N         143.5725  142.5212  168.1250 N.ar    1  UNL1       -0.2397
     21 H         141.2218  141.9642  172.2226 H       1  UNL1        0.1438
     22 H         142.8576  142.4339  172.3295 H       1  UNL1        0.1438
     23 N         143.0756  137.3227  160.9267 N.am    1  UNL1       -0.3252
     24 C         143.0262  138.1897  159.7038 C.2     1  UNL1        0.2457
     25 O         143.0379  137.5646  158.3402 O.2     1  UNL1       -0.2703
     26 H         143.1157  136.3433  160.8345 H       1  UNL1        0.1453
     27 H         143.0680  137.7329  161.8216 H       1  UNL1        0.1453
     28 N         142.7819  144.1584  160.2657 N.pl3   1  UNL1       -0.3197
     29 H         143.5714  144.6560  160.5792 H       1  UNL1        0.1481
     30 C         141.5179  144.8923  159.9284 C.3     1  UNL1        0.0702
     31 C         141.2996  145.4098  158.5375 C.3     1  UNL1        0.0179
     32 C         141.8108  145.6612  157.1499 C.3     1  UNL1        0.0017
     33 C         140.4104  146.0546  157.5161 C.3     1  UNL1        0.0017
     34 C         140.4724  145.1087  160.9819 C.3     1  UNL1        0.0179
     35 C         139.6445  146.0383  161.8189 C.3     1  UNL1        0.0017
     36 C         139.4892  144.5540  161.9697 C.3     1  UNL1        0.0017
@<TRIPOS>BOND
     1    23    24   am
     2    24    25    2
     3    24     1    1
     4     1     2   ar
     5     2     3   ar
     6     3     4   ar
     7     4    28    1
     8    28    30    1
     9    30    31    1
    10    31    32    1
    11    32    33    1
    12    30    34    1
    13    34    35    1
    14    35    36    1
    15     4     5   ar
    16     5     6   ar
    17     6     7    1
    18     7     8    2
    19     8     9    1
    20     9    10    1
    21    10    14    1
    22    14    15   ar
    23    15    16   ar
    24    16    17   ar
    25    17    18    1
    26    17    19   ar
    27    19    20   ar
    28    10    11    2
    29    11    12    1
    30    12    13    2
    31     6     1   ar
    32    13     8    1
    33    33    31    1
    34    36    34    1
    35    13     5    1
    36    20    14   ar
    37    23    26    1
    38    23    27    1
    39    28    29    1
    40    18    21    1
    41    18    22    1
