@<TRIPOS>MOLECULE
*****
 24 26 0 0 0
SMALL
GASTEIGER

@<TRIPOS>ATOM
      1 C         140.5051  142.3546  165.2443 C.ar    1  UNL1       -0.0143
      2 C         139.3846  143.0505  164.5300 C.ar    1  UNL1        0.0051
      3 S         139.9512  144.2585  163.8447 S.2     1  UNL1       -0.0915
      4 C         141.4219  144.3092  164.1355 C.ar    1  UNL1        0.0288
      5 C         142.4935  145.2749  163.7243 C.ar    1  UNL1        0.0065
      6 C         143.9075  145.0638  164.1782 C.ar    1  UNL1        0.0005
      7 C         144.2499  143.8871  165.0432 C.ar    1  UNL1        0.0000
      8 C         143.1782  142.9215  165.4543 C.ar    1  UNL1        0.0002
      9 C         141.7642  143.1325  165.0005 C.ar    1  UNL1        0.0025
     10 C         140.3873  141.1009  166.0593 C.3     1  UNL1        0.0657
     11 C         140.0775  141.1852  167.5246 C.3     1  UNL1        0.0111
     12 C         139.4334  138.7983  165.3255 C.ar    1  UNL1        0.1525
     13 C         139.6254  137.4603  164.6754 C.ar    1  UNL1        0.0397
     14 C         140.9630  137.0866  164.1089 C.ar    1  UNL1        0.0238
     15 C         142.1089  138.0511  164.1925 C.ar    1  UNL1        0.0987
     16 N         141.9169  139.3891  164.8427 N.ar    1  UNL1       -0.2448
     17 C         140.5791  139.7628  165.4092 C.ar    1  UNL1        0.0965
     18 C         137.5593  138.4460  167.0901 C.3     1  UNL1        0.2525
     19 O         138.0957  139.1719  165.8920 O.3     1  UNL1       -0.4702
     20 C         137.9495  142.6148  164.5054 C.3     1  UNL1        0.0499
     21 C         137.4759  141.6520  163.4572 C.3     1  UNL1        0.0774
     22 N         138.2575  141.4800  162.1886 N.3     1  UNL1       -0.2700
     23 C         139.1676  140.2992  162.0226 C.3     1  UNL1        0.0897
     24 C         138.1292  142.4889  161.0860 C.3     1  UNL1        0.0897
@<TRIPOS>BOND
     1    18    19    1
     2    19    12    1
     3    12    13   ar
     4    13    14   ar
     5    14    15   ar
     6    15    16   ar
     7    16    17   ar
     8    17    10    1
     9    10    11    1
    10    10     1    1
    11     1     2   ar
    12     2    20    1
    13    20    21    1
    14    21    22    1
    15    22    23    1
    16    22    24    1
    17     2     3   ar
    18     3     4   ar
    19     4     5   ar
    20     5     6   ar
    21     6     7   ar
    22     7     8   ar
    23     8     9   ar
    24    17    12   ar
    25     9     1   ar
    26     9     4   ar
@<TRIPOS>MOLECULE
*****
 24 26 0 0 0
SMALL
GASTEIGER

@<TRIPOS>ATOM
      1 C         140.5058  140.9521  165.5454 C.ar    1  UNL1       -0.0143
      2 C         139.7356  139.7939  164.9837 C.ar    1  UNL1        0.0051
      3 S         138.4593  140.3248  164.4012 S.2     1  UNL1       -0.0915
      4 C         138.4407  141.8111  164.6029 C.ar    1  UNL1        0.0288
      5 C         137.4356  142.8615  164.2340 C.ar    1  UNL1        0.0065
      6 C         137.6951  144.2996  164.5722 C.ar    1  UNL1        0.0005
      7 C         138.9599  144.6873  165.2793 C.ar    1  UNL1        0.0000
      8 C         139.9651  143.6368  165.6483 C.ar    1  UNL1        0.0002
      9 C         139.7055  142.1988  165.3100 C.ar    1  UNL1        0.0025
     10 C         141.8417  140.8768  166.2234 C.3     1  UNL1        0.0657
     11 C         141.9208  140.6054  167.6966 C.3     1  UNL1        0.0111
     12 C         143.8992  139.8842  164.9859 C.ar    1  UNL1        0.1525
     13 C         145.1559  140.0804  164.1909 C.ar    1  UNL1        0.0397
     14 C         145.6119  141.4652  163.8383 C.ar    1  UNL1        0.0238
     15 C         144.8112  142.6539  164.2808 C.ar    1  UNL1        0.0987
     16 N         143.5545  142.4577  165.0758 N.ar    1  UNL1       -0.2448
     17 C         143.0984  141.0729  165.4284 C.ar    1  UNL1        0.0965
     18 C         143.9452  137.8399  166.5887 C.3     1  UNL1        0.2525
     19 O         143.4432  138.4994  165.3384 O.3     1  UNL1       -0.4702
     20 C         140.1661  138.3571  165.0014 C.3     1  UNL1        0.0499
     21 C         139.8478  137.4644  163.8388 C.3     1  UNL1        0.0774
     22 N         140.3662  137.7997  162.4718 N.3     1  UNL1       -0.2700
     23 C         139.4064  138.0784  161.3531 C.3     1  UNL1        0.0897
     24 C         141.8444  137.8562  162.2233 C.3     1  UNL1        0.0897
@<TRIPOS>BOND
     1    18    19    1
     2    19    12    1
     3    12    13   ar
     4    13    14   ar
     5    14    15   ar
     6    15    16   ar
     7    16    17   ar
     8    17    10    1
     9    10    11    1
    10    10     1    1
    11     1     2   ar
    12     2    20    1
    13    20    21    1
    14    21    22    1
    15    22    23    1
    16    22    24    1
    17     2     3   ar
    18     3     4   ar
    19     4     5   ar
    20     5     6   ar
    21     6     7   ar
    22     7     8   ar
    23     8     9   ar
    24    17    12   ar
    25     9     1   ar
    26     9     4   ar
@<TRIPOS>MOLECULE
*****
 24 26 0 0 0
SMALL
GASTEIGER

@<TRIPOS>ATOM
      1 C         138.7501  140.4547  164.4198 C.ar    1  UNL1       -0.0143
      2 C         138.3154  139.9913  163.0610 C.ar    1  UNL1        0.0051
      3 S         138.1247  141.2028  162.1972 S.2     1  UNL1       -0.0915
      4 C         138.4416  142.4148  163.0222 C.ar    1  UNL1        0.0288
      5 C         138.4281  143.8797  162.7000 C.ar    1  UNL1        0.0065
      6 C         138.8012  144.8823  163.7515 C.ar    1  UNL1        0.0005
      7 C         139.1877  144.4200  165.1251 C.ar    1  UNL1        0.0000
      8 C         139.2011  142.9551  165.4473 C.ar    1  UNL1        0.0002
      9 C         138.8281  141.9525  164.3958 C.ar    1  UNL1        0.0025
     10 C         139.0535  139.5748  165.5960 C.3     1  UNL1        0.0657
     11 C         137.9339  138.9398  166.3664 C.3     1  UNL1        0.0111
     12 C         141.0205  139.9627  167.2485 C.ar    1  UNL1        0.1525
     13 C         142.4435  139.7176  167.6545 C.ar    1  UNL1        0.0397
     14 C         143.3227  138.8396  166.8142 C.ar    1  UNL1        0.0238
     15 C         142.7788  138.2066  165.5677 C.ar    1  UNL1        0.0987
     16 N         141.3557  138.4517  165.1617 N.ar    1  UNL1       -0.2448
     17 C         140.4765  139.3297  166.0021 C.ar    1  UNL1        0.0965
     18 C         139.6437  140.3524  169.4170 C.3     1  UNL1        0.2525
     19 O         140.1414  140.8407  168.0889 O.3     1  UNL1       -0.4702
     20 C         138.1078  138.5667  162.6399 C.3     1  UNL1        0.0499
     21 C         139.2897  137.6696  162.4207 C.3     1  UNL1        0.0774
     22 N         140.2872  137.9918  161.3478 N.3     1  UNL1       -0.2700
     23 C         141.7542  137.8265  161.6134 C.3     1  UNL1        0.0897
     24 C         139.8176  138.4792  160.0092 C.3     1  UNL1        0.0897
@<TRIPOS>BOND
     1    18    19    1
     2    19    12    1
     3    12    13   ar
     4    13    14   ar
     5    14    15   ar
     6    15    16   ar
     7    16    17   ar
     8    17    10    1
     9    10    11    1
    10    10     1    1
    11     1     2   ar
    12     2    20    1
    13    20    21    1
    14    21    22    1
    15    22    23    1
    16    22    24    1
    17     2     3   ar
    18     3     4   ar
    19     4     5   ar
    20     5     6   ar
    21     6     7   ar
    22     7     8   ar
    23     8     9   ar
    24    17    12   ar
    25     9     1   ar
    26     9     4   ar
@<TRIPOS>MOLECULE
*****
 24 26 0 0 0
SMALL
GASTEIGER

@<TRIPOS>ATOM
      1 C         140.3259  139.4765  166.1371 C.ar    1  UNL1       -0.0143
      2 C         141.5481  138.7301  165.6908 C.ar    1  UNL1        0.0051
      3 S         142.7390  139.3475  166.3620 S.2     1  UNL1       -0.0915
      4 C         142.2529  140.4754  167.2231 C.ar    1  UNL1        0.0288
      5 C         142.9756  141.4402  168.1157 C.ar    1  UNL1        0.0065
      6 C         142.2069  142.4846  168.8694 C.ar    1  UNL1        0.0005
      7 C         140.7155  142.5644  168.7305 C.ar    1  UNL1        0.0000
      8 C         139.9928  141.5996  167.8378 C.ar    1  UNL1        0.0002
      9 C         140.7615  140.5551  167.0841 C.ar    1  UNL1        0.0025
     10 C         138.9157  139.1938  165.7112 C.3     1  UNL1        0.0657
     11 C         137.9277  138.6514  166.7011 C.3     1  UNL1        0.0111
     12 C         138.1000  140.8377  163.8721 C.ar    1  UNL1        0.1525
     13 C         137.6777  141.0973  162.4564 C.ar    1  UNL1        0.0397
     14 C         137.6487  139.9729  161.4642 C.ar    1  UNL1        0.0238
     15 C         138.0420  138.5886  161.8876 C.ar    1  UNL1        0.0987
     16 N         138.4643  138.3290  163.3033 N.ar    1  UNL1       -0.2448
     17 C         138.4934  139.4535  164.2956 C.ar    1  UNL1        0.0965
     18 C         139.0682  143.1147  164.6646 C.3     1  UNL1        0.2525
     19 O         138.1290  141.9623  164.8644 O.3     1  UNL1       -0.4702
     20 C         141.5746  137.5700  164.7403 C.3     1  UNL1        0.0499
     21 C         141.7891  137.8061  163.2746 C.3     1  UNL1        0.0774
     22 N         142.4309  139.0783  162.8059 N.3     1  UNL1       -0.2700
     23 C         143.9258  139.1856  162.7440 C.3     1  UNL1        0.0897
     24 C         141.5778  140.2430  162.3991 C.3     1  UNL1        0.0897
@<TRIPOS>BOND
     1    18    19    1
     2    19    12    1
     3    12    13   ar
     4    13    14   ar
     5    14    15   ar
     6    15    16   ar
     7    16    17   ar
     8    17    10    1
     9    10    11    1
    10    10     1    1
    11     1     2   ar
    12     2    20    1
    13    20    21    1
    14    21    22    1
    15    22    23    1
    16    22    24    1
    17     2     3   ar
    18     3     4   ar
    19     4     5   ar
    20     5     6   ar
    21     6     7   ar
    22     7     8   ar
    23     8     9   ar
    24    17    12   ar
    25     9     1   ar
    26     9     4   ar
@<TRIPOS>MOLECULE
*****
 24 26 0 0 0
SMALL
GASTEIGER

@<TRIPOS>ATOM
      1 C         140.4411  140.1980  166.5828 C.ar    1  UNL1       -0.0143
      2 C         141.6625  139.4528  166.1324 C.ar    1  UNL1        0.0051
      3 S         142.8293  139.9472  166.9351 S.2     1  UNL1       -0.0915
      4 C         142.3290  140.9979  167.8815 C.ar    1  UNL1        0.0288
      5 C         143.0267  141.8335  168.9134 C.ar    1  UNL1        0.0065
      6 C         142.2484  142.8241  169.7276 C.ar    1  UNL1        0.0005
      7 C         140.7724  142.9791  169.5098 C.ar    1  UNL1        0.0000
      8 C         140.0747  142.1435  168.4779 C.ar    1  UNL1        0.0002
      9 C         140.8530  141.1529  167.6638 C.ar    1  UNL1        0.0025
     10 C         139.0517  140.0196  166.0463 C.3     1  UNL1        0.0657
     11 C         138.1264  139.0218  166.6775 C.3     1  UNL1        0.0111
     12 C         138.2804  140.1732  163.5702 C.ar    1  UNL1        0.1525
     13 C         137.8162  140.9925  162.4026 C.ar    1  UNL1        0.0397
     14 C         137.6592  142.4776  162.5436 C.ar    1  UNL1        0.0238
     15 C         137.9664  143.1434  163.8522 C.ar    1  UNL1        0.0987
     16 N         138.4305  142.3240  165.0198 N.ar    1  UNL1       -0.2448
     17 C         138.5876  140.8389  164.8788 C.ar    1  UNL1        0.0965
     18 C         138.2179  138.0339  162.0972 C.3     1  UNL1        0.2525
     19 O         138.4373  138.6881  163.4291 O.3     1  UNL1       -0.4702
     20 C         141.7090  138.3984  165.0666 C.3     1  UNL1        0.0499
     21 C         141.9070  138.7901  163.6322 C.3     1  UNL1        0.0774
     22 N         143.2652  138.6798  163.0053 N.3     1  UNL1       -0.2700
     23 C         143.4373  137.9348  161.7147 C.3     1  UNL1        0.0897
     24 C         144.4513  139.3144  163.6688 C.3     1  UNL1        0.0897
@<TRIPOS>BOND
     1    18    19    1
     2    19    12    1
     3    12    13   ar
     4    13    14   ar
     5    14    15   ar
     6    15    16   ar
     7    16    17   ar
     8    17    10    1
     9    10    11    1
    10    10     1    1
    11     1     2   ar
    12     2    20    1
    13    20    21    1
    14    21    22    1
    15    22    23    1
    16    22    24    1
    17     2     3   ar
    18     3     4   ar
    19     4     5   ar
    20     5     6   ar
    21     6     7   ar
    22     7     8   ar
    23     8     9   ar
    24    17    12   ar
    25     9     1   ar
    26     9     4   ar
@<TRIPOS>MOLECULE
*****
 24 26 0 0 0
SMALL
GASTEIGER

@<TRIPOS>ATOM
      1 C         140.6920  141.2188  165.6275 C.ar    1  UNL1       -0.0143
      2 C         139.9992  139.9612  165.1933 C.ar    1  UNL1        0.0051
      3 S         138.6596  140.3394  164.6344 S.2     1  UNL1       -0.0915
      4 C         138.5245  141.8306  164.7231 C.ar    1  UNL1        0.0288
      5 C         137.4200  142.7638  164.3244 C.ar    1  UNL1        0.0065
      6 C         137.5716  144.2406  164.5394 C.ar    1  UNL1        0.0005
      7 C         138.8277  144.7841  165.1532 C.ar    1  UNL1        0.0000
      8 C         139.9322  143.8509  165.5520 C.ar    1  UNL1        0.0002
      9 C         139.7806  142.3741  165.3369 C.ar    1  UNL1        0.0025
     10 C         142.0567  141.3057  166.2440 C.3     1  UNL1        0.0657
     11 C         142.1998  141.5182  167.7221 C.3     1  UNL1        0.0111
     12 C         143.8864  142.4023  164.7609 C.ar    1  UNL1        0.1525
     13 C         145.1080  142.2767  163.8996 C.ar    1  UNL1        0.0397
     14 C         145.7215  140.9291  163.6600 C.ar    1  UNL1        0.0238
     15 C         145.1134  139.7069  164.2818 C.ar    1  UNL1        0.0987
     16 N         143.8918  139.8325  165.1431 N.ar    1  UNL1       -0.2448
     17 C         143.2782  141.1802  165.3827 C.ar    1  UNL1        0.0965
     18 C         143.5967  144.8945  164.0865 C.3     1  UNL1        0.2525
     19 O         143.2730  143.7500  165.0005 O.3     1  UNL1       -0.4702
     20 C         140.5494  138.5698  165.2994 C.3     1  UNL1        0.0499
     21 C         140.2554  137.5632  164.2269 C.3     1  UNL1        0.0774
     22 N         140.7023  137.8166  162.8176 N.3     1  UNL1       -0.2700
     23 C         139.6864  137.9681  161.7244 C.3     1  UNL1        0.0897
     24 C         142.1651  137.9186  162.5015 C.3     1  UNL1        0.0897
@<TRIPOS>BOND
     1    18    19    1
     2    19    12    1
     3    12    13   ar
     4    13    14   ar
     5    14    15   ar
     6    15    16   ar
     7    16    17   ar
     8    17    10    1
     9    10    11    1
    10    10     1    1
    11     1     2   ar
    12     2    20    1
    13    20    21    1
    14    21    22    1
    15    22    23    1
    16    22    24    1
    17     2     3   ar
    18     3     4   ar
    19     4     5   ar
    20     5     6   ar
    21     6     7   ar
    22     7     8   ar
    23     8     9   ar
    24    17    12   ar
    25     9     1   ar
    26     9     4   ar
@<TRIPOS>MOLECULE
*****
 24 26 0 0 0
SMALL
GASTEIGER

@<TRIPOS>ATOM
      1 C         142.1242  141.5498  165.7020 C.ar    1  UNL1       -0.0143
      2 C         141.3670  142.8208  165.4545 C.ar    1  UNL1        0.0051
      3 S         142.1133  143.6110  164.4207 S.2     1  UNL1       -0.0915
      4 C         143.3317  142.8284  164.0294 C.ar    1  UNL1        0.0288
      5 C         144.4358  143.1112  163.0543 C.ar    1  UNL1        0.0065
      6 C         145.5466  142.1200  162.8710 C.ar    1  UNL1        0.0005
      7 C         145.5534  140.8461  163.6629 C.ar    1  UNL1        0.0000
      8 C         144.4492  140.5633  164.6381 C.ar    1  UNL1        0.0002
      9 C         143.3384  141.5545  164.8213 C.ar    1  UNL1        0.0025
     10 C         141.7354  140.4646  166.6618 C.3     1  UNL1        0.0657
     11 C         142.5104  140.2735  167.9319 C.3     1  UNL1        0.0111
     12 C         140.7196  138.4693  165.3439 C.ar    1  UNL1        0.1525
     13 C         139.5558  137.5752  165.0338 C.ar    1  UNL1        0.0397
     14 C         138.2442  137.7822  165.7315 C.ar    1  UNL1        0.0238
     15 C         138.0962  138.8833  166.7393 C.ar    1  UNL1        0.0987
     16 N         139.2600  139.7774  167.0494 N.ar    1  UNL1       -0.2448
     17 C         140.5717  139.5705  166.3517 C.ar    1  UNL1        0.0965
     18 C         142.0634  138.0204  163.1662 C.3     1  UNL1        0.2525
     19 O         142.0312  138.2623  164.6462 O.3     1  UNL1       -0.4702
     20 C         140.0882  143.2298  166.1232 C.3     1  UNL1        0.0499
     21 C         139.0690  144.0298  165.3674 C.3     1  UNL1        0.0774
     22 N         138.2588  143.3808  164.2847 N.3     1  UNL1       -0.2700
     23 C         137.9536  141.9137  164.3533 C.3     1  UNL1        0.0897
     24 C         137.7536  144.1988  163.1333 C.3     1  UNL1        0.0897
@<TRIPOS>BOND
     1    18    19    1
     2    19    12    1
     3    12    13   ar
     4    13    14   ar
     5    14    15   ar
     6    15    16   ar
     7    16    17   ar
     8    17    10    1
     9    10    11    1
    10    10     1    1
    11     1     2   ar
    12     2    20    1
    13    20    21    1
    14    21    22    1
    15    22    23    1
    16    22    24    1
    17     2     3   ar
    18     3     4   ar
    19     4     5   ar
    20     5     6   ar
    21     6     7   ar
    22     7     8   ar
    23     8     9   ar
    24    17    12   ar
    25     9     1   ar
    26     9     4   ar
@<TRIPOS>MOLECULE
*****
 24 26 0 0 0
SMALL
GASTEIGER

@<TRIPOS>ATOM
      1 C         141.8699  140.3305  165.6432 C.ar    1  UNL1       -0.0143
      2 C         142.7097  139.5059  164.7133 C.ar    1  UNL1        0.0051
      3 S         141.9341  138.2715  164.3599 S.2     1  UNL1       -0.0915
      4 C         140.6151  138.3332  165.0715 C.ar    1  UNL1        0.0288
      5 C         139.4450  137.3951  165.0997 C.ar    1  UNL1        0.0065
      6 C         138.2353  137.7295  165.9210 C.ar    1  UNL1        0.0005
      7 C         138.1956  139.0020  166.7141 C.ar    1  UNL1        0.0000
      8 C         139.3656  139.9401  166.6860 C.ar    1  UNL1        0.0002
      9 C         140.5754  139.6057  165.8646 C.ar    1  UNL1        0.0025
     10 C         142.2567  141.6485  166.2460 C.3     1  UNL1        0.0657
     11 C         142.5056  141.7542  167.7215 C.3     1  UNL1        0.0111
     12 C         141.1705  143.5470  164.8441 C.ar    1  UNL1        0.1525
     13 C         141.3085  144.7593  163.9715 C.ar    1  UNL1        0.0397
     14 C         142.6706  145.2852  163.6283 C.ar    1  UNL1        0.0238
     15 C         143.8949  144.5989  164.1576 C.ar    1  UNL1        0.0987
     16 N         143.7569  143.3866  165.0302 N.ar    1  UNL1       -0.2448
     17 C         142.3946  142.8606  165.3735 C.ar    1  UNL1        0.0965
     18 C         138.5929  143.8617  164.9293 C.3     1  UNL1        0.2525
     19 O         139.8082  143.0212  165.1873 O.3     1  UNL1       -0.4702
     20 C         144.0837  139.8545  164.2228 C.3     1  UNL1        0.0499
     21 C         144.3326  140.0351  162.7547 C.3     1  UNL1        0.0774
     22 N         143.9170  141.3056  162.0743 N.3     1  UNL1       -0.2700
     23 C         142.4622  141.5974  161.8541 C.3     1  UNL1        0.0897
     24 C         144.9563  142.2845  161.6140 C.3     1  UNL1        0.0897
@<TRIPOS>BOND
     1    18    19    1
     2    19    12    1
     3    12    13   ar
     4    13    14   ar
     5    14    15   ar
     6    15    16   ar
     7    16    17   ar
     8    17    10    1
     9    10    11    1
    10    10     1    1
    11     1     2   ar
    12     2    20    1
    13    20    21    1
    14    21    22    1
    15    22    23    1
    16    22    24    1
    17     2     3   ar
    18     3     4   ar
    19     4     5   ar
    20     5     6   ar
    21     6     7   ar
    22     7     8   ar
    23     8     9   ar
    24    17    12   ar
    25     9     1   ar
    26     9     4   ar
@<TRIPOS>MOLECULE
*****
 24 26 0 0 0
SMALL
GASTEIGER

@<TRIPOS>ATOM
      1 C         141.6596  141.0323  166.5307 C.ar    1  UNL1       -0.0143
      2 C         142.4484  139.7911  166.8260 C.ar    1  UNL1        0.0051
      3 S         142.5679  139.6614  168.3156 S.2     1  UNL1       -0.0915
      4 C         141.8530  140.8224  168.9409 C.ar    1  UNL1        0.0288
      5 C         141.6407  141.2175  170.3723 C.ar    1  UNL1        0.0065
      6 C         140.8670  142.4599  170.7005 C.ar    1  UNL1        0.0005
      7 C         140.3056  143.3072  169.5973 C.ar    1  UNL1        0.0000
      8 C         140.5179  142.9121  168.1660 C.ar    1  UNL1        0.0002
      9 C         141.2916  141.6697  167.8378 C.ar    1  UNL1        0.0025
     10 C         141.3016  141.5460  165.1677 C.3     1  UNL1        0.0657
     11 C         140.1331  140.9630  164.4295 C.3     1  UNL1        0.0111
     12 C         141.5410  144.0251  164.4281 C.ar    1  UNL1        0.1525
     13 C         142.3514  145.1217  163.8032 C.ar    1  UNL1        0.0397
     14 C         143.7327  144.8361  163.2928 C.ar    1  UNL1        0.0238
     15 C         144.3036  143.4537  163.4074 C.ar    1  UNL1        0.0987
     16 N         143.4932  142.3571  164.0324 N.ar    1  UNL1       -0.2448
     17 C         142.1119  142.6427  164.5428 C.ar    1  UNL1        0.0965
     18 C         139.0988  144.7997  163.9975 C.3     1  UNL1        0.2525
     19 O         140.1598  144.3108  164.9384 O.3     1  UNL1       -0.4702
     20 C         143.0177  138.8457  165.8101 C.3     1  UNL1        0.0499
     21 C         142.1108  137.9160  165.0598 C.3     1  UNL1        0.0774
     22 N         142.0163  138.0043  163.5654 N.3     1  UNL1       -0.2700
     23 C         140.8239  137.4360  162.8544 C.3     1  UNL1        0.0897
     24 C         143.1140  138.6609  162.7819 C.3     1  UNL1        0.0897
@<TRIPOS>BOND
     1    18    19    1
     2    19    12    1
     3    12    13   ar
     4    13    14   ar
     5    14    15   ar
     6    15    16   ar
     7    16    17   ar
     8    17    10    1
     9    10    11    1
    10    10     1    1
    11     1     2   ar
    12     2    20    1
    13    20    21    1
    14    21    22    1
    15    22    23    1
    16    22    24    1
    17     2     3   ar
    18     3     4   ar
    19     4     5   ar
    20     5     6   ar
    21     6     7   ar
    22     7     8   ar
    23     8     9   ar
    24    17    12   ar
    25     9     1   ar
    26     9     4   ar
