@<TRIPOS>MOLECULE
*****
 31 35 0 0 0
SMALL
GASTEIGER

@<TRIPOS>ATOM
      1 C         141.4618  142.9938  158.9772 C.ar    1  UNL1        0.0505
      2 C         140.1918  142.4368  158.4054 C.ar    1  UNL1        0.0178
      3 C         138.9375  142.4329  159.2280 C.ar    1  UNL1        0.0379
      4 C         138.9531  142.9858  160.6222 C.ar    1  UNL1        0.1364
      5 C         140.2231  143.5428  161.1940 C.ar    1  UNL1        0.0367
      6 C         141.4775  143.5468  160.3715 C.ar    1  UNL1        0.0153
      7 C         140.2387  144.0958  162.5882 C.3     1  UNL1        0.1537
      8 C         140.4066  144.6796  163.9597 C.3     1  UNL1        0.2350
      9 O         141.8354  145.1114  164.1080 O.2     1  UNL1       -0.4478
     10 C         142.5506  144.7944  162.8281 C.2     1  UNL1        0.2770
     11 N         143.9985  145.0587  162.5384 N.pl3   1  UNL1       -0.3133
     12 N         141.5638  144.1667  161.8889 N.2     1  UNL1       -0.2204
     13 C         138.9843  144.0918  163.4107 C.3     1  UNL1        0.0666
     14 C         138.2691  144.4088  164.6906 C.3     1  UNL1        0.0061
     15 C         139.7266  144.7326  164.5458 C.3     1  UNL1        0.0061
     16 C         137.7143  143.5349  162.8390 C.3     1  UNL1        0.2074
     17 O         137.6987  142.9818  161.4447 O.3     1  UNL1       -0.4756
     18 H         144.5690  145.4772  163.2229 H       1  UNL1        0.1466
     19 H         144.3782  144.8136  161.6637 H       1  UNL1        0.1466
     20 C         143.7617  141.9452  158.3762 C.2     1  UNL1        0.2672
     21 O         143.5528  140.8886  159.4203 O.2     1  UNL1       -0.2682
     22 N         142.7162  142.9978  158.1547 N.am    1  UNL1       -0.2791
     23 H         142.8533  143.6912  157.4694 H       1  UNL1        0.1552
     24 C         147.5248  141.9572  155.9087 C.ar    1  UNL1        0.0876
     25 C         146.3651  141.0962  155.5037 C.ar    1  UNL1        0.0135
     26 C         145.1107  141.0922  156.3262 C.ar    1  UNL1        0.0245
     27 C         145.0160  141.9492  157.5537 C.ar    1  UNL1        0.1348
     28 N         146.1757  142.8101  157.9586 N.ar    1  UNL1       -0.2385
     29 C         147.4300  142.8141  157.1361 C.ar    1  UNL1        0.1092
     30 N         150.0335  141.9652  154.2636 N.1     1  UNL1       -0.1908
     31 C         148.7792  141.9612  155.0862 C.1     1  UNL1        0.1020
@<TRIPOS>BOND
     1    30    31    3
     2    31    24    1
     3    24    25   ar
     4    25    26   ar
     5    26    27   ar
     6    27    20    1
     7    20    21    2
     8    20    22   am
     9    22     1    1
    10     1     2   ar
    11     2     3   ar
    12     3     4   ar
    13     4     5   ar
    14     5     6   ar
    15     5     7    1
    16     7     8    1
    17     8     9    1
    18     9    10    1
    19    10    11    1
    20    10    12    2
    21     7    13    1
    22    13    14    1
    23    14    15    1
    24    13    16    1
    25    16    17    1
    26    27    28   ar
    27    28    29   ar
    28    29    24   ar
    29     6     1   ar
    30    12     7    1
    31    15    13    1
    32    17     4    1
    33    22    23    1
    34    11    18    1
    35    11    19    1
@<TRIPOS>MOLECULE
*****
 31 35 0 0 0
SMALL
GASTEIGER

@<TRIPOS>ATOM
      1 C         139.7329  139.6851  164.9374 C.ar    1  UNL1        0.0505
      2 C         138.5556  138.9765  165.5388 C.ar    1  UNL1        0.0178
      3 C         138.3177  139.0397  167.0185 C.ar    1  UNL1        0.0379
      4 C         139.2572  139.8116  167.8968 C.ar    1  UNL1        0.1364
      5 C         140.4347  140.5202  167.2954 C.ar    1  UNL1        0.0367
      6 C         140.6725  140.4570  165.8158 C.ar    1  UNL1        0.0153
      7 C         141.3742  141.2921  168.1738 C.3     1  UNL1        0.1537
      8 C         142.3940  142.0987  168.9217 C.3     1  UNL1        0.2350
      9 O         143.3885  142.6236  167.9291 O.2     1  UNL1       -0.4478
     10 C         142.9834  142.1415  166.5676 C.2     1  UNL1        0.2770
     11 N         143.6978  142.4313  165.2809 N.pl3   1  UNL1       -0.3133
     12 N         141.7385  141.3185  166.7189 N.2     1  UNL1       -0.2204
     13 C         141.1364  141.3554  169.6534 C.3     1  UNL1        0.0666
     14 C         141.5415  141.8376  171.0148 C.3     1  UNL1        0.0061
     15 C         142.3586  142.2102  169.8133 C.3     1  UNL1        0.0061
     16 C         139.9590  140.6468  170.2548 C.3     1  UNL1        0.2074
     17 O         139.0194  139.8749  169.3765 O.3     1  UNL1       -0.4756
     18 H         144.5119  142.9849  165.2838 H       1  UNL1        0.1466
     19 H         143.3526  142.0680  164.4335 H       1  UNL1        0.1466
     20 C         140.5854  138.3966  162.8486 C.2     1  UNL1        0.2672
     21 O         140.9622  137.2346  163.7192 O.2     1  UNL1       -0.2682
     22 N         139.9707  139.6218  163.4578 N.am    1  UNL1       -0.2791
     23 H         139.7234  140.3844  162.8864 H       1  UNL1        0.1552
     24 C         141.2989  138.2068  158.4096 C.ar    1  UNL1        0.0876
     25 C         142.4393  138.0007  159.3620 C.ar    1  UNL1        0.0135
     26 C         142.2014  138.0639  160.8417 C.ar    1  UNL1        0.0245
     27 C         140.8232  138.3333  161.3690 C.ar    1  UNL1        0.1348
     28 N         139.6829  138.5395  160.4166 N.ar    1  UNL1       -0.2385
     29 C         139.9207  138.4762  158.9369 C.ar    1  UNL1        0.1092
     30 N         141.7745  138.0803  155.4503 N.1     1  UNL1       -0.1908
     31 C         141.5367  138.1435  156.9300 C.1     1  UNL1        0.1020
@<TRIPOS>BOND
     1    30    31    3
     2    31    24    1
     3    24    25   ar
     4    25    26   ar
     5    26    27   ar
     6    27    20    1
     7    20    21    2
     8    20    22   am
     9    22     1    1
    10     1     2   ar
    11     2     3   ar
    12     3     4   ar
    13     4     5   ar
    14     5     6   ar
    15     5     7    1
    16     7     8    1
    17     8     9    1
    18     9    10    1
    19    10    11    1
    20    10    12    2
    21     7    13    1
    22    13    14    1
    23    14    15    1
    24    13    16    1
    25    16    17    1
    26    27    28   ar
    27    28    29   ar
    28    29    24   ar
    29     6     1   ar
    30    12     7    1
    31    15    13    1
    32    17     4    1
    33    22    23    1
    34    11    18    1
    35    11    19    1
@<TRIPOS>MOLECULE
*****
 31 35 0 0 0
SMALL
GASTEIGER

@<TRIPOS>ATOM
      1 C         138.5002  141.5329  162.3925 C.ar    1  UNL1        0.0505
      2 C         137.8504  140.2828  161.8779 C.ar    1  UNL1        0.0178
      3 C         137.7051  140.0665  160.4007 C.ar    1  UNL1        0.0379
      4 C         138.2096  141.1003  159.4381 C.ar    1  UNL1        0.1364
      5 C         138.8595  142.3505  159.9527 C.ar    1  UNL1        0.0367
      6 C         139.0048  142.5668  161.4299 C.ar    1  UNL1        0.0153
      7 C         139.3640  143.3843  158.9901 C.3     1  UNL1        0.1537
      8 C         139.9137  144.5010  158.1530 C.3     1  UNL1        0.2350
      9 O         140.4677  145.5441  159.0777 O.2     1  UNL1       -0.4478
     10 C         140.2603  145.0721  160.4864 C.2     1  UNL1        0.2770
     11 N         140.6641  145.8061  161.7307 N.pl3   1  UNL1       -0.3133
     12 N         139.5782  143.7373  160.4322 N.2     1  UNL1       -0.2204
     13 C         139.2187  143.1680  157.5129 C.3     1  UNL1        0.0666
     14 C         139.4261  143.6400  156.1044 C.3     1  UNL1        0.0061
     15 C         139.8852  144.4867  157.2543 C.3     1  UNL1        0.0061
     16 C         138.5689  141.9179  156.9983 C.3     1  UNL1        0.2074
     17 O         138.0643  140.8840  157.9609 O.3     1  UNL1       -0.4756
     18 H         141.1091  146.6817  161.6632 H       1  UNL1        0.1466
     19 H         140.4841  145.4122  162.6148 H       1  UNL1        0.1466
     20 C         139.7574  141.0781  164.6202 C.2     1  UNL1        0.2672
     21 O         140.7241  140.1907  163.8935 O.2     1  UNL1       -0.2682
     22 N         138.6455  141.7492  163.8697 N.am    1  UNL1       -0.2791
     23 H         138.0110  142.3317  164.3467 H       1  UNL1        0.1552
     24 C         140.1932  141.7270  169.0518 C.ar    1  UNL1        0.0876
     25 C         140.5412  142.8284  168.0947 C.ar    1  UNL1        0.0135
     26 C         140.3959  142.6121  166.6175 C.ar    1  UNL1        0.0245
     27 C         139.9027  141.2944  166.0974 C.ar    1  UNL1        0.1348
     28 N         139.5547  140.1931  167.0545 N.ar    1  UNL1       -0.2385
     29 C         139.7000  140.4094  168.5317 C.ar    1  UNL1        0.1092
     30 N         140.4838  142.1597  172.0062 N.1     1  UNL1       -0.1908
     31 C         140.3385  141.9433  170.5290 C.1     1  UNL1        0.1020
@<TRIPOS>BOND
     1    30    31    3
     2    31    24    1
     3    24    25   ar
     4    25    26   ar
     5    26    27   ar
     6    27    20    1
     7    20    21    2
     8    20    22   am
     9    22     1    1
    10     1     2   ar
    11     2     3   ar
    12     3     4   ar
    13     4     5   ar
    14     5     6   ar
    15     5     7    1
    16     7     8    1
    17     8     9    1
    18     9    10    1
    19    10    11    1
    20    10    12    2
    21     7    13    1
    22    13    14    1
    23    14    15    1
    24    13    16    1
    25    16    17    1
    26    27    28   ar
    27    28    29   ar
    28    29    24   ar
    29     6     1   ar
    30    12     7    1
    31    15    13    1
    32    17     4    1
    33    22    23    1
    34    11    18    1
    35    11    19    1
@<TRIPOS>MOLECULE
*****
 31 35 0 0 0
SMALL
GASTEIGER

@<TRIPOS>ATOM
      1 C         139.2155  139.6961  162.7278 C.ar    1  UNL1        0.0505
      2 C         137.8779  139.9254  162.0887 C.ar    1  UNL1        0.0178
      3 C         137.7122  139.7418  160.6092 C.ar    1  UNL1        0.0379
      4 C         138.8841  139.3289  159.7688 C.ar    1  UNL1        0.1364
      5 C         140.2217  139.0997  160.4079 C.ar    1  UNL1        0.0367
      6 C         140.3874  139.2833  161.8873 C.ar    1  UNL1        0.0153
      7 C         141.3935  138.6868  159.5674 C.3     1  UNL1        0.1537
      8 C         142.6497  138.2735  158.8595 C.3     1  UNL1        0.2350
      9 O         143.7422  138.1619  159.8811 O.2     1  UNL1       -0.4478
     10 C         143.1613  138.5062  161.2206 C.2     1  UNL1        0.2770
     11 N         143.9020  138.5232  162.5248 N.pl3   1  UNL1       -0.3133
     12 N         141.7098  138.8307  161.0267 N.2     1  UNL1       -0.2204
     13 C         141.2278  138.5032  158.0880 C.3     1  UNL1        0.0666
     14 C         141.8087  138.1589  156.7486 C.3     1  UNL1        0.0061
     15 C         142.6766  138.1325  157.9717 C.3     1  UNL1        0.0061
     16 C         139.8903  138.7325  157.4489 C.3     1  UNL1        0.2074
     17 O         138.7184  139.1453  158.2893 O.3     1  UNL1       -0.4756
     18 H         144.8591  138.2938  162.5504 H       1  UNL1        0.1466
     19 H         143.4311  138.7637  163.3553 H       1  UNL1        0.1466
     20 C         139.7059  141.2345  164.7631 C.2     1  UNL1        0.2672
     21 O         139.8649  142.4058  163.8396 O.2     1  UNL1       -0.2682
     22 N         139.3812  139.8797  164.2072 N.am    1  UNL1       -0.2791
     23 H         139.2768  139.1110  164.8134 H       1  UNL1        0.1552
     24 C         140.2030  141.7853  169.2016 C.ar    1  UNL1        0.0876
     25 C         140.5242  142.9124  168.2653 C.ar    1  UNL1        0.0135
     26 C         140.3585  142.7288  166.7858 C.ar    1  UNL1        0.0245
     27 C         139.8716  141.4181  166.2426 C.ar    1  UNL1        0.1348
     28 N         139.5504  140.2911  167.1789 N.ar    1  UNL1       -0.2385
     29 C         139.7161  140.4747  168.6583 C.ar    1  UNL1        0.1092
     30 N         140.5344  142.1525  172.1605 N.1     1  UNL1       -0.1908
     31 C         140.3687  141.9689  170.6810 C.1     1  UNL1        0.1020
@<TRIPOS>BOND
     1    30    31    3
     2    31    24    1
     3    24    25   ar
     4    25    26   ar
     5    26    27   ar
     6    27    20    1
     7    20    21    2
     8    20    22   am
     9    22     1    1
    10     1     2   ar
    11     2     3   ar
    12     3     4   ar
    13     4     5   ar
    14     5     6   ar
    15     5     7    1
    16     7     8    1
    17     8     9    1
    18     9    10    1
    19    10    11    1
    20    10    12    2
    21     7    13    1
    22    13    14    1
    23    14    15    1
    24    13    16    1
    25    16    17    1
    26    27    28   ar
    27    28    29   ar
    28    29    24   ar
    29     6     1   ar
    30    12     7    1
    31    15    13    1
    32    17     4    1
    33    22    23    1
    34    11    18    1
    35    11    19    1
@<TRIPOS>MOLECULE
*****
 31 35 0 0 0
SMALL
GASTEIGER

@<TRIPOS>ATOM
      1 C         139.2580  140.0818  165.0010 C.ar    1  UNL1        0.0505
      2 C         138.2018  139.2890  165.7123 C.ar    1  UNL1        0.0178
      3 C         138.2344  139.1676  167.2070 C.ar    1  UNL1        0.0379
      4 C         139.3232  139.8391  167.9904 C.ar    1  UNL1        0.1364
      5 C         140.3794  140.6319  167.2791 C.ar    1  UNL1        0.0367
      6 C         140.3468  140.7533  165.7844 C.ar    1  UNL1        0.0153
      7 C         141.4681  141.3033  168.0625 C.3     1  UNL1        0.1537
      8 C         142.6127  142.0262  168.7085 C.3     1  UNL1        0.2350
      9 O         143.4171  142.6821  167.6256 O.2     1  UNL1       -0.4478
     10 C         142.7697  142.3645  166.3103 C.2     1  UNL1        0.2770
     11 N         143.2436  142.8193  164.9617 N.pl3   1  UNL1       -0.3133
     12 N         141.5652  141.5124  166.5803 N.2     1  UNL1       -0.2204
     13 C         141.5007  141.1820  169.5573 C.3     1  UNL1        0.0666
     14 C         142.1481  141.4995  170.8725 C.3     1  UNL1        0.0061
     15 C         142.7391  142.0273  169.5989 C.3     1  UNL1        0.0061
     16 C         140.4446  140.3892  170.2686 C.3     1  UNL1        0.2074
     17 O         139.3557  139.7177  169.4851 O.3     1  UNL1       -0.4756
     18 H         144.0497  143.3794  164.8864 H       1  UNL1        0.1466
     19 H         142.7485  142.5576  164.1520 H       1  UNL1        0.1466
     20 C         138.3369  141.2216  162.8557 C.2     1  UNL1        0.2672
     21 O         137.4809  142.1187  163.6998 O.2     1  UNL1       -0.2682
     22 N         139.2254  140.2032  163.5062 N.am    1  UNL1       -0.2791
     23 H         139.7872  139.6144  162.9522 H       1  UNL1        0.1552
     24 C         138.2391  141.5857  158.3715 C.ar    1  UNL1        0.0876
     25 C         138.0076  140.2535  159.0210 C.ar    1  UNL1        0.0135
     26 C         138.0402  140.1322  160.5157 C.ar    1  UNL1        0.0245
     27 C         138.3043  141.3430  161.3609 C.ar    1  UNL1        0.1348
     28 N         138.5357  142.6751  160.7114 N.ar    1  UNL1       -0.2385
     29 C         138.5031  142.7964  159.2167 C.ar    1  UNL1        0.1092
     30 N         138.1739  141.8285  155.3820 N.1     1  UNL1       -0.1908
     31 C         138.2065  141.7071  156.8768 C.1     1  UNL1        0.1020
@<TRIPOS>BOND
     1    30    31    3
     2    31    24    1
     3    24    25   ar
     4    25    26   ar
     5    26    27   ar
     6    27    20    1
     7    20    21    2
     8    20    22   am
     9    22     1    1
    10     1     2   ar
    11     2     3   ar
    12     3     4   ar
    13     4     5   ar
    14     5     6   ar
    15     5     7    1
    16     7     8    1
    17     8     9    1
    18     9    10    1
    19    10    11    1
    20    10    12    2
    21     7    13    1
    22    13    14    1
    23    14    15    1
    24    13    16    1
    25    16    17    1
    26    27    28   ar
    27    28    29   ar
    28    29    24   ar
    29     6     1   ar
    30    12     7    1
    31    15    13    1
    32    17     4    1
    33    22    23    1
    34    11    18    1
    35    11    19    1
@<TRIPOS>MOLECULE
*****
 31 35 0 0 0
SMALL
GASTEIGER

@<TRIPOS>ATOM
      1 C         141.8725  141.3687  164.6210 C.ar    1  UNL1        0.0505
      2 C         143.1156  142.2051  164.6937 C.ar    1  UNL1        0.0178
      3 C         143.6559  142.6313  166.0265 C.ar    1  UNL1        0.0379
      4 C         142.9531  142.2212  167.2866 C.ar    1  UNL1        0.1364
      5 C         141.7100  141.3848  167.2140 C.ar    1  UNL1        0.0367
      6 C         141.1697  140.9586  165.8812 C.ar    1  UNL1        0.0153
      7 C         141.0073  140.9747  168.4741 C.3     1  UNL1        0.1537
      8 C         140.2007  140.4907  169.6425 C.3     1  UNL1        0.2350
      9 O         139.0475  139.6924  169.1108 O.2     1  UNL1       -0.4478
     10 C         139.1413  139.6831  167.6137 C.2     1  UNL1        0.2770
     11 N         138.1907  139.0010  166.6750 N.pl3   1  UNL1       -0.3133
     12 N         140.3525  140.4756  167.2202 N.2     1  UNL1       -0.2204
     13 C         141.5476  141.4010  169.8069 C.3     1  UNL1        0.0666
     14 C         141.4538  141.4103  171.3039 C.3     1  UNL1        0.0061
     15 C         140.4242  140.6813  170.4925 C.3     1  UNL1        0.0061
     16 C         142.7906  142.2373  169.8796 C.3     1  UNL1        0.2074
     17 O         143.4934  142.6474  168.6195 O.3     1  UNL1       -0.4756
     18 H         137.4204  138.5020  167.0310 H       1  UNL1        0.1466
     19 H         138.3372  139.0523  165.7028 H       1  UNL1        0.1466
     20 C         141.8252  139.6785  162.6485 C.2     1  UNL1        0.2672
     21 O         142.8585  138.8407  163.3417 O.2     1  UNL1       -0.2682
     22 N         141.3322  140.9425  163.2882 N.am    1  UNL1       -0.2791
     23 H         140.6540  141.4924  162.8333 H       1  UNL1        0.1552
     24 C         140.2042  138.3998  158.6501 C.ar    1  UNL1        0.0876
     25 C         141.6863  138.4704  158.8708 C.ar    1  UNL1        0.0135
     26 C         142.2266  138.8966  160.2036 C.ar    1  UNL1        0.0245
     27 C         141.2849  139.2523  161.3157 C.ar    1  UNL1        0.1348
     28 N         139.8029  139.1817  161.0950 N.ar    1  UNL1       -0.2385
     29 C         139.2626  138.7554  159.7622 C.ar    1  UNL1        0.1092
     30 N         139.1236  137.5473  155.9845 N.1     1  UNL1       -0.1908
     31 C         139.6639  137.9736  157.3173 C.1     1  UNL1        0.1020
@<TRIPOS>BOND
     1    30    31    3
     2    31    24    1
     3    24    25   ar
     4    25    26   ar
     5    26    27   ar
     6    27    20    1
     7    20    21    2
     8    20    22   am
     9    22     1    1
    10     1     2   ar
    11     2     3   ar
    12     3     4   ar
    13     4     5   ar
    14     5     6   ar
    15     5     7    1
    16     7     8    1
    17     8     9    1
    18     9    10    1
    19    10    11    1
    20    10    12    2
    21     7    13    1
    22    13    14    1
    23    14    15    1
    24    13    16    1
    25    16    17    1
    26    27    28   ar
    27    28    29   ar
    28    29    24   ar
    29     6     1   ar
    30    12     7    1
    31    15    13    1
    32    17     4    1
    33    22    23    1
    34    11    18    1
    35    11    19    1
@<TRIPOS>MOLECULE
*****
 31 35 0 0 0
SMALL
GASTEIGER

@<TRIPOS>ATOM
      1 C         139.0125  141.2533  160.6468 C.ar    1  UNL1        0.0505
      2 C         138.1079  140.3392  159.8748 C.ar    1  UNL1        0.0178
      3 C         137.7514  140.6615  158.4539 C.ar    1  UNL1        0.0379
      4 C         138.2994  141.8978  157.8050 C.ar    1  UNL1        0.1364
      5 C         139.2040  142.8120  158.5770 C.ar    1  UNL1        0.0367
      6 C         139.5606  142.4898  159.9980 C.ar    1  UNL1        0.0153
      7 C         139.7521  144.0483  157.9282 C.3     1  UNL1        0.1537
      8 C         140.3732  145.3136  157.4152 C.3     1  UNL1        0.2350
      9 O         141.1994  145.9049  158.5187 O.2     1  UNL1       -0.4478
     10 C         141.0888  145.0051  159.7138 C.2     1  UNL1        0.2770
     11 N         141.7556  145.2157  161.0408 N.pl3   1  UNL1       -0.3133
     12 N         140.1943  143.8576  159.3488 N.2     1  UNL1       -0.2204
     13 C         139.3955  144.3705  156.5072 C.3     1  UNL1        0.0666
     14 C         139.5061  145.2704  155.3122 C.3     1  UNL1        0.0061
     15 C         140.2342  145.6121  156.5783 C.3     1  UNL1        0.0061
     16 C         138.4910  143.4564  155.7352 C.3     1  UNL1        0.2074
     17 O         137.9429  142.2200  156.3840 O.3     1  UNL1       -0.4756
     18 H         142.3275  146.0040  161.1847 H       1  UNL1        0.1466
     19 H         141.6214  144.5656  161.7678 H       1  UNL1        0.1466
     20 C         138.4290  141.2963  163.1782 C.2     1  UNL1        0.2672
     21 O         137.1324  141.9837  162.8677 O.2     1  UNL1       -0.2682
     22 N         139.3690  140.9311  162.0678 N.am    1  UNL1       -0.2791
     23 H         140.2199  140.4800  162.2716 H       1  UNL1        0.1552
     24 C         139.4986  140.3296  167.4410 C.ar    1  UNL1        0.0876
     25 C         138.6019  139.4103  166.6658 C.ar    1  UNL1        0.0135
     26 C         138.2453  139.7325  165.2448 C.ar    1  UNL1        0.0245
     27 C         138.7855  140.9741  164.5991 C.ar    1  UNL1        0.1348
     28 N         139.6822  141.8933  165.3743 N.ar    1  UNL1       -0.2385
     29 C         140.0387  141.5711  166.7953 C.ar    1  UNL1        0.1092
     30 N         140.2116  139.6852  170.2829 N.1     1  UNL1       -0.1908
     31 C         139.8551  140.0074  168.8619 C.1     1  UNL1        0.1020
@<TRIPOS>BOND
     1    30    31    3
     2    31    24    1
     3    24    25   ar
     4    25    26   ar
     5    26    27   ar
     6    27    20    1
     7    20    21    2
     8    20    22   am
     9    22     1    1
    10     1     2   ar
    11     2     3   ar
    12     3     4   ar
    13     4     5   ar
    14     5     6   ar
    15     5     7    1
    16     7     8    1
    17     8     9    1
    18     9    10    1
    19    10    11    1
    20    10    12    2
    21     7    13    1
    22    13    14    1
    23    14    15    1
    24    13    16    1
    25    16    17    1
    26    27    28   ar
    27    28    29   ar
    28    29    24   ar
    29     6     1   ar
    30    12     7    1
    31    15    13    1
    32    17     4    1
    33    22    23    1
    34    11    18    1
    35    11    19    1
@<TRIPOS>MOLECULE
*****
 31 35 0 0 0
SMALL
GASTEIGER

@<TRIPOS>ATOM
      1 C         142.9462  138.2204  162.1169 C.ar    1  UNL1        0.0505
      2 C         144.2705  138.7442  162.5877 C.ar    1  UNL1        0.0178
      3 C         144.3826  139.4006  163.9318 C.ar    1  UNL1        0.0379
      4 C         143.1703  139.5332  164.8051 C.ar    1  UNL1        0.1364
      5 C         141.8459  139.0093  164.3343 C.ar    1  UNL1        0.0367
      6 C         141.7338  138.3529  162.9902 C.ar    1  UNL1        0.0153
      7 C         140.6336  139.1419  165.2077 C.3     1  UNL1        0.1537
      8 C         139.3412  139.2025  165.9667 C.3     1  UNL1        0.2350
      9 O         138.2780  138.5635  165.1234 O.2     1  UNL1       -0.4478
     10 C         138.9132  138.1080  163.8431 C.2     1  UNL1        0.2770
     11 N         138.2151  137.4165  162.7097 N.pl3   1  UNL1       -0.3133
     12 N         140.3690  138.4655  163.8952 N.2     1  UNL1       -0.2204
     13 C         140.7456  139.7982  166.5518 C.3     1  UNL1        0.0666
     14 C         140.1104  140.2537  167.8320 C.3     1  UNL1        0.0061
     15 C         139.2811  139.5723  166.7842 C.3     1  UNL1        0.0061
     16 C         142.0700  140.3221  167.0225 C.3     1  UNL1        0.2074
     17 O         143.2824  140.1895  166.1492 O.3     1  UNL1       -0.4756
     18 H         137.2515  137.2240  162.7692 H       1  UNL1        0.1466
     19 H         138.7206  137.1551  161.9064 H       1  UNL1        0.1466
     20 C         142.5459  138.3918  159.5556 C.2     1  UNL1        0.2672
     21 O         142.3696  139.8761  159.6824 O.2     1  UNL1       -0.2682
     22 N         142.8341  137.5640  160.7728 N.am    1  UNL1       -0.2791
     23 H         142.9498  136.5899  160.6895 H       1  UNL1        0.1552
     24 C         142.2097  136.4227  155.5233 C.ar    1  UNL1        0.0876
     25 C         141.4495  137.6842  155.8076 C.ar    1  UNL1        0.0135
     26 C         141.5615  138.3406  157.1517 C.ar    1  UNL1        0.0245
     27 C         142.4338  137.7354  158.2115 C.ar    1  UNL1        0.1348
     28 N         143.1939  136.4740  157.9271 N.ar    1  UNL1       -0.2385
     29 C         143.0818  135.8176  156.5830 C.ar    1  UNL1        0.1092
     30 N         141.9855  135.1099  152.8351 N.1     1  UNL1       -0.1908
     31 C         142.0976  135.7663  154.1792 C.1     1  UNL1        0.1020
@<TRIPOS>BOND
     1    30    31    3
     2    31    24    1
     3    24    25   ar
     4    25    26   ar
     5    26    27   ar
     6    27    20    1
     7    20    21    2
     8    20    22   am
     9    22     1    1
    10     1     2   ar
    11     2     3   ar
    12     3     4   ar
    13     4     5   ar
    14     5     6   ar
    15     5     7    1
    16     7     8    1
    17     8     9    1
    18     9    10    1
    19    10    11    1
    20    10    12    2
    21     7    13    1
    22    13    14    1
    23    14    15    1
    24    13    16    1
    25    16    17    1
    26    27    28   ar
    27    28    29   ar
    28    29    24   ar
    29     6     1   ar
    30    12     7    1
    31    15    13    1
    32    17     4    1
    33    22    23    1
    34    11    18    1
    35    11    19    1
@<TRIPOS>MOLECULE
*****
 31 35 0 0 0
SMALL
GASTEIGER

@<TRIPOS>ATOM
      1 C         141.9552  140.3653  161.1837 C.ar    1  UNL1        0.0505
      2 C         143.2223  141.0767  161.5555 C.ar    1  UNL1        0.0178
      3 C         143.1766  142.2546  162.4831 C.ar    1  UNL1        0.0379
      4 C         141.8639  142.7211  163.0389 C.ar    1  UNL1        0.1364
      5 C         140.5967  142.0097  162.6671 C.ar    1  UNL1        0.0367
      6 C         140.6423  140.8318  161.7395 C.ar    1  UNL1        0.0153
      7 C         139.2839  142.4762  163.2229 C.3     1  UNL1        0.1537
      8 C         137.9046  142.8261  163.6973 C.3     1  UNL1        0.2350
      9 O         136.9418  141.8561  163.0791 O.2     1  UNL1       -0.4478
     10 C         137.7261  140.9067  162.2226 C.2     1  UNL1        0.2770
     11 N         137.1620  139.7731  161.4184 N.pl3   1  UNL1       -0.3133
     12 N         139.1736  141.2899  162.3115 N.2     1  UNL1       -0.2204
     13 C         139.2382  143.6541  164.1505 C.3     1  UNL1        0.0666
     14 C         138.4539  144.6035  165.0069 C.3     1  UNL1        0.0061
     15 C         137.7487  143.5127  164.2568 C.3     1  UNL1        0.0061
     16 C         140.5054  144.3655  164.5223 C.3     1  UNL1        0.2074
     17 O         141.8182  143.8991  163.9664 O.3     1  UNL1       -0.4756
     18 H         136.1929  139.6000  161.4242 H       1  UNL1        0.1466
     19 H         137.7609  139.2022  160.8849 H       1  UNL1        0.1466
     20 C         141.6754  139.3643  158.8026 C.2     1  UNL1        0.2672
     21 O         141.3043  140.7192  158.2766 O.2     1  UNL1       -0.2682
     22 N         142.0008  139.1874  160.2561 N.am    1  UNL1       -0.2791
     23 H         142.2444  138.2981  160.6013 H       1  UNL1        0.1552
     24 C         141.8124  135.8305  156.0199 C.ar    1  UNL1        0.0876
     25 C         140.6147  136.7336  156.0270 C.ar    1  UNL1        0.0135
     26 C         140.5690  137.9115  156.9545 C.ar    1  UNL1        0.0245
     27 C         141.7211  138.1863  157.8750 C.ar    1  UNL1        0.1348
     28 N         142.9187  137.2833  157.8679 N.ar    1  UNL1       -0.2385
     29 C         142.9644  136.1054  156.9403 C.ar    1  UNL1        0.1092
     30 N         141.9037  133.4746  154.1647 N.1     1  UNL1       -0.1908
     31 C         141.8581  134.6526  155.0923 C.1     1  UNL1        0.1020
@<TRIPOS>BOND
     1    30    31    3
     2    31    24    1
     3    24    25   ar
     4    25    26   ar
     5    26    27   ar
     6    27    20    1
     7    20    21    2
     8    20    22   am
     9    22     1    1
    10     1     2   ar
    11     2     3   ar
    12     3     4   ar
    13     4     5   ar
    14     5     6   ar
    15     5     7    1
    16     7     8    1
    17     8     9    1
    18     9    10    1
    19    10    11    1
    20    10    12    2
    21     7    13    1
    22    13    14    1
    23    14    15    1
    24    13    16    1
    25    16    17    1
    26    27    28   ar
    27    28    29   ar
    28    29    24   ar
    29     6     1   ar
    30    12     7    1
    31    15    13    1
    32    17     4    1
    33    22    23    1
    34    11    18    1
    35    11    19    1
