@<TRIPOS>MOLECULE
*****
 30 33 0 0 0
SMALL
GASTEIGER

@<TRIPOS>ATOM
      1 C         141.7715  140.4756  162.0860 C.3     1  UNL1        0.0539
      2 C         141.4966  141.5049  163.1419 C.3     1  UNL1        0.2052
      3 C         140.2419  142.3248  163.0814 C.ar    1  UNL1        0.0940
      4 N         140.2780  143.7101  162.5075 N.ar    1  UNL1       -0.3204
      5 C         139.0233  144.5299  162.4470 C.ar    1  UNL1        0.2577
      6 O         139.0594  145.9153  161.8731 O.2     1  UNL1       -0.2672
      7 C         137.7324  143.9644  162.9607 C.ar    1  UNL1        0.0621
      8 C         137.6963  142.5790  163.5347 C.ar    1  UNL1        0.0253
      9 C         138.9510  141.7592  163.5951 C.ar    1  UNL1        0.0979
     10 H         141.1253  144.0813  162.1704 H       1  UNL1        0.1688
     11 N         138.9149  140.3738  164.1691 N.ar    1  UNL1       -0.2269
     12 C         138.7903  140.0246  165.6225 C.ar    1  UNL1        0.1021
     13 C         138.7954  138.5294  165.7421 C.ar    1  UNL1        0.0431
     14 C         138.9231  137.9545  164.3625 C.ar    1  UNL1        0.1221
     15 N         138.9970  139.0944  163.3903 N.ar    1  UNL1       -0.1634
     16 O         142.4764  141.7145  164.2581 O.3     1  UNL1       -0.4704
     17 C         142.1203  141.3025  165.6558 C.ar    1  UNL1        0.1698
     18 C         141.4211  142.2673  166.5670 C.ar    1  UNL1        0.0414
     19 C         141.0651  141.8553  167.9647 C.ar    1  UNL1        0.0230
     20 C         140.3659  142.8201  168.8759 C.ar    1  UNL1        0.0312
     21 C         140.0099  142.4080  170.2736 C.ar    1  UNL1        0.1402
     22 F         139.3106  143.3728  171.1848 F       1  UNL1       -0.2042
     23 C         140.3531  141.0312  170.7600 C.ar    1  UNL1        0.0312
     24 C         141.0523  140.0664  169.8488 C.ar    1  UNL1        0.0215
     25 C         141.4083  140.4785  168.4512 C.ar    1  UNL1        0.0830
     26 N         142.1075  139.5137  167.5399 N.ar    1  UNL1       -0.2280
     27 C         142.4635  139.9257  166.1423 C.ar    1  UNL1        0.1596
     28 N         143.1628  138.9609  165.2310 N.pl3   1  UNL1       -0.3402
     29 H         143.3880  138.0573  165.5503 H       1  UNL1        0.1438
     30 H         143.3964  139.2314  164.3137 H       1  UNL1        0.1438
@<TRIPOS>BOND
     1     2     1    1
     2     2    16    1
     3    16    17    1
     4    17    18   ar
     5    18    19   ar
     6    19    20   ar
     7    20    21   ar
     8    21    22    1
     9    21    23   ar
    10    23    24   ar
    11    24    25   ar
    12    25    26   ar
    13    26    27   ar
    14    27    28    1
    15     2     3    1
    16     3     4   ar
    17     4     5   ar
    18     5     6    2
    19     5     7   ar
    20     7     8   ar
    21     8     9   ar
    22     9    11    1
    23    11    12   ar
    24    12    13   ar
    25    13    14   ar
    26    14    15   ar
    27    27    17   ar
    28     9     3   ar
    29    15    11   ar
    30    25    19   ar
    31    28    29    1
    32    28    30    1
    33     4    10    1
@<TRIPOS>MOLECULE
*****
 30 33 0 0 0
SMALL
GASTEIGER

@<TRIPOS>ATOM
      1 C         137.5275  142.4676  163.3370 C.3     1  UNL1        0.0539
      2 C         138.7644  141.8639  163.9333 C.3     1  UNL1        0.2052
      3 C         138.7550  140.4365  164.3944 C.ar    1  UNL1        0.0940
      4 N         138.0145  140.0564  165.6423 N.ar    1  UNL1       -0.3204
      5 C         138.0051  138.6290  166.1034 C.ar    1  UNL1        0.2577
      6 O         137.2646  138.2488  167.3513 O.2     1  UNL1       -0.2672
      7 C         138.7361  137.5818  165.3167 C.ar    1  UNL1        0.0621
      8 C         139.4766  137.9620  164.0688 C.ar    1  UNL1        0.0253
      9 C         139.4860  139.3894  163.6077 C.ar    1  UNL1        0.0979
     10 H         137.5347  140.7437  166.1586 H       1  UNL1        0.1688
     11 N         140.2265  139.7696  162.3598 N.ar    1  UNL1       -0.2269
     12 C         139.6607  139.7912  160.9708 C.ar    1  UNL1        0.1021
     13 C         140.7473  140.2299  160.0344 C.ar    1  UNL1        0.0431
     14 C         141.9848  140.4794  160.8447 C.ar    1  UNL1        0.1221
     15 N         141.6629  140.1949  162.2820 N.ar    1  UNL1       -0.1634
     16 O         140.0107  142.6875  164.0685 O.3     1  UNL1       -0.4704
     17 C         140.8561  142.5716  165.3023 C.ar    1  UNL1        0.1698
     18 C         140.2089  142.5448  166.6551 C.ar    1  UNL1        0.0414
     19 C         141.0542  142.4290  167.8889 C.ar    1  UNL1        0.0230
     20 C         140.4070  142.4022  169.2417 C.ar    1  UNL1        0.0312
     21 C         141.2523  142.2863  170.4754 C.ar    1  UNL1        0.1402
     22 F         140.6051  142.2595  171.8283 F       1  UNL1       -0.2042
     23 C         142.7449  142.1972  170.3561 C.ar    1  UNL1        0.0312
     24 C         143.3922  142.2240  169.0033 C.ar    1  UNL1        0.0215
     25 C         142.5468  142.3399  167.7696 C.ar    1  UNL1        0.0830
     26 N         143.1940  142.3667  166.4166 N.ar    1  UNL1       -0.2280
     27 C         142.3487  142.4825  165.1830 C.ar    1  UNL1        0.1596
     28 N         142.9959  142.5093  163.8300 N.pl3   1  UNL1       -0.3402
     29 H         143.9756  142.4509  163.7518 H       1  UNL1        0.1438
     30 H         142.4411  142.5854  163.0204 H       1  UNL1        0.1438
@<TRIPOS>BOND
     1     2     1    1
     2     2    16    1
     3    16    17    1
     4    17    18   ar
     5    18    19   ar
     6    19    20   ar
     7    20    21   ar
     8    21    22    1
     9    21    23   ar
    10    23    24   ar
    11    24    25   ar
    12    25    26   ar
    13    26    27   ar
    14    27    28    1
    15     2     3    1
    16     3     4   ar
    17     4     5   ar
    18     5     6    2
    19     5     7   ar
    20     7     8   ar
    21     8     9   ar
    22     9    11    1
    23    11    12   ar
    24    12    13   ar
    25    13    14   ar
    26    14    15   ar
    27    27    17   ar
    28     9     3   ar
    29    15    11   ar
    30    25    19   ar
    31    28    29    1
    32    28    30    1
    33     4    10    1
@<TRIPOS>MOLECULE
*****
 30 33 0 0 0
SMALL
GASTEIGER

@<TRIPOS>ATOM
      1 C         142.7427  139.0845  167.3830 C.3     1  UNL1        0.0539
      2 C         142.8007  140.5610  167.1250 C.3     1  UNL1        0.2052
      3 C         142.2060  141.5191  168.1143 C.ar    1  UNL1        0.0940
      4 N         143.0915  142.2348  169.0908 N.ar    1  UNL1       -0.3204
      5 C         142.4968  143.1929  170.0800 C.ar    1  UNL1        0.2577
      6 O         143.3823  143.9085  171.0565 O.2     1  UNL1       -0.2672
      7 C         141.0166  143.4353  170.0926 C.ar    1  UNL1        0.0621
      8 C         140.1310  142.7196  169.1160 C.ar    1  UNL1        0.0253
      9 C         140.7257  141.7615  168.1269 C.ar    1  UNL1        0.0979
     10 H         144.0630  142.0757  169.0825 H       1  UNL1        0.1688
     11 N         139.8402  141.0458  167.1503 N.ar    1  UNL1       -0.2269
     12 C         139.2419  139.6831  167.3372 C.ar    1  UNL1        0.1021
     13 C         138.4295  139.3623  166.1177 C.ar    1  UNL1        0.0431
     14 C         138.5256  140.5268  165.1771 C.ar    1  UNL1        0.1221
     15 N         139.3976  141.5674  165.8153 N.ar    1  UNL1       -0.1634
     16 O         143.4533  141.0795  165.8779 O.3     1  UNL1       -0.4704
     17 C         142.6098  141.5550  164.7322 C.ar    1  UNL1        0.1698
     18 C         142.2740  143.0111  164.6018 C.ar    1  UNL1        0.0414
     19 C         141.4306  143.4865  163.4560 C.ar    1  UNL1        0.0230
     20 C         141.0947  144.9426  163.3256 C.ar    1  UNL1        0.0312
     21 C         140.2514  145.4180  162.1799 C.ar    1  UNL1        0.1402
     22 F         139.9155  146.8741  162.0494 F       1  UNL1       -0.2042
     23 C         139.7438  144.4374  161.1646 C.ar    1  UNL1        0.0312
     24 C         140.0797  142.9813  161.2951 C.ar    1  UNL1        0.0215
     25 C         140.9231  142.5059  162.4408 C.ar    1  UNL1        0.0830
     26 N         141.2590  141.0498  162.5712 N.ar    1  UNL1       -0.2280
     27 C         142.1023  140.5744  163.7169 C.ar    1  UNL1        0.1596
     28 N         142.4382  139.1182  163.8474 N.pl3   1  UNL1       -0.3402
     29 H         142.1051  138.4746  163.1811 H       1  UNL1        0.1438
     30 H         142.9918  138.8062  164.5994 H       1  UNL1        0.1438
@<TRIPOS>BOND
     1     2     1    1
     2     2    16    1
     3    16    17    1
     4    17    18   ar
     5    18    19   ar
     6    19    20   ar
     7    20    21   ar
     8    21    22    1
     9    21    23   ar
    10    23    24   ar
    11    24    25   ar
    12    25    26   ar
    13    26    27   ar
    14    27    28    1
    15     2     3    1
    16     3     4   ar
    17     4     5   ar
    18     5     6    2
    19     5     7   ar
    20     7     8   ar
    21     8     9   ar
    22     9    11    1
    23    11    12   ar
    24    12    13   ar
    25    13    14   ar
    26    14    15   ar
    27    27    17   ar
    28     9     3   ar
    29    15    11   ar
    30    25    19   ar
    31    28    29    1
    32    28    30    1
    33     4    10    1
@<TRIPOS>MOLECULE
*****
 30 33 0 0 0
SMALL
GASTEIGER

@<TRIPOS>ATOM
      1 C         138.7858  145.0805  163.2301 C.3     1  UNL1        0.0539
      2 C         140.1990  144.8115  162.8052 C.3     1  UNL1        0.2052
      3 C         140.5012  144.4770  161.3745 C.ar    1  UNL1        0.0940
      4 N         141.2878  145.4352  160.5302 N.ar    1  UNL1       -0.3204
      5 C         141.5900  145.1007  159.0995 C.ar    1  UNL1        0.2577
      6 O         142.3767  146.0589  158.2552 O.2     1  UNL1       -0.2672
      7 C         141.1055  143.8078  158.5132 C.ar    1  UNL1        0.0621
      8 C         140.3188  142.8495  159.3575 C.ar    1  UNL1        0.0253
      9 C         140.0166  143.1841  160.7881 C.ar    1  UNL1        0.0979
     10 H         141.6058  146.2838  160.9151 H       1  UNL1        0.1688
     11 N         139.2299  142.2258  161.6325 N.ar    1  UNL1       -0.2269
     12 C         139.7882  141.0662  162.4029 C.ar    1  UNL1        0.1021
     13 C         138.6502  140.3827  163.1012 C.ar    1  UNL1        0.0431
     14 C         137.3885  141.1198  162.7623 C.ar    1  UNL1        0.1221
     15 N         137.7468  142.2591  161.8546 N.ar    1  UNL1       -0.1634
     16 O         141.3100  144.8771  163.8108 O.3     1  UNL1       -0.4704
     17 C         142.3290  143.7782  163.8754 C.ar    1  UNL1        0.1698
     18 C         141.9930  142.4827  164.5528 C.ar    1  UNL1        0.0414
     19 C         143.0120  141.3838  164.6174 C.ar    1  UNL1        0.0230
     20 C         142.6761  140.0883  165.2947 C.ar    1  UNL1        0.0312
     21 C         143.6951  138.9895  165.3593 C.ar    1  UNL1        0.1402
     22 F         143.3591  137.6939  166.0367 F       1  UNL1       -0.2042
     23 C         145.0500  139.1861  164.7465 C.ar    1  UNL1        0.0312
     24 C         145.3859  140.4816  164.0691 C.ar    1  UNL1        0.0215
     25 C         144.3669  141.5804  164.0045 C.ar    1  UNL1        0.0830
     26 N         144.7028  142.8760  163.3271 N.ar    1  UNL1       -0.2280
     27 C         143.6839  143.9748  163.2626 C.ar    1  UNL1        0.1596
     28 N         144.0198  145.2703  162.5852 N.pl3   1  UNL1       -0.3402
     29 H         144.9091  145.3994  162.1830 H       1  UNL1        0.1438
     30 H         143.3510  145.9916  162.5428 H       1  UNL1        0.1438
@<TRIPOS>BOND
     1     2     1    1
     2     2    16    1
     3    16    17    1
     4    17    18   ar
     5    18    19   ar
     6    19    20   ar
     7    20    21   ar
     8    21    22    1
     9    21    23   ar
    10    23    24   ar
    11    24    25   ar
    12    25    26   ar
    13    26    27   ar
    14    27    28    1
    15     2     3    1
    16     3     4   ar
    17     4     5   ar
    18     5     6    2
    19     5     7   ar
    20     7     8   ar
    21     8     9   ar
    22     9    11    1
    23    11    12   ar
    24    12    13   ar
    25    13    14   ar
    26    14    15   ar
    27    27    17   ar
    28     9     3   ar
    29    15    11   ar
    30    25    19   ar
    31    28    29    1
    32    28    30    1
    33     4    10    1
@<TRIPOS>MOLECULE
*****
 30 33 0 0 0
SMALL
GASTEIGER

@<TRIPOS>ATOM
      1 C         142.3914  145.4477  163.6097 C.3     1  UNL1        0.0539
      2 C         141.3216  144.9360  162.6912 C.3     1  UNL1        0.2052
      3 C         141.6642  144.5491  161.2830 C.ar    1  UNL1        0.0940
      4 N         141.4426  145.5218  160.1629 N.ar    1  UNL1       -0.3204
      5 C         141.7851  145.1348  158.7547 C.ar    1  UNL1        0.2577
      6 O         141.5635  146.1076  157.6346 O.2     1  UNL1       -0.2672
      7 C         142.3492  143.7751  158.4667 C.ar    1  UNL1        0.0621
      8 C         142.5708  142.8024  159.5868 C.ar    1  UNL1        0.0253
      9 C         142.2283  143.1894  160.9950 C.ar    1  UNL1        0.0979
     10 H         141.0724  146.4142  160.3520 H       1  UNL1        0.1688
     11 N         142.4499  142.2166  162.1152 N.ar    1  UNL1       -0.2269
     12 C         143.6079  142.2186  163.0685 C.ar    1  UNL1        0.1021
     13 C         143.4260  141.0743  164.0211 C.ar    1  UNL1        0.0431
     14 C         142.1555  140.3651  163.6566 C.ar    1  UNL1        0.1221
     15 N         141.5521  141.0712  162.4786 N.ar    1  UNL1       -0.1634
     16 O         139.9093  144.8113  163.1809 O.3     1  UNL1       -0.4704
     17 C         139.4410  143.5281  163.8007 C.ar    1  UNL1        0.1698
     18 C         140.0206  143.0705  165.1063 C.ar    1  UNL1        0.0414
     19 C         139.5523  141.7873  165.7262 C.ar    1  UNL1        0.0230
     20 C         140.1319  141.3297  167.0318 C.ar    1  UNL1        0.0312
     21 C         139.6636  140.0466  167.6516 C.ar    1  UNL1        0.1402
     22 F         140.2432  139.5889  168.9572 F       1  UNL1       -0.2042
     23 C         138.6157  139.2210  166.9658 C.ar    1  UNL1        0.0312
     24 C         138.0361  139.6786  165.6602 C.ar    1  UNL1        0.0215
     25 C         138.5044  140.9617  165.0404 C.ar    1  UNL1        0.0830
     26 N         137.9248  141.4194  163.7347 N.ar    1  UNL1       -0.2280
     27 C         138.3931  142.7025  163.1149 C.ar    1  UNL1        0.1596
     28 N         137.8135  143.1602  161.8092 N.pl3   1  UNL1       -0.3402
     29 H         137.1257  142.6183  161.3591 H       1  UNL1        0.1438
     30 H         138.1209  144.0023  161.4025 H       1  UNL1        0.1438
@<TRIPOS>BOND
     1     2     1    1
     2     2    16    1
     3    16    17    1
     4    17    18   ar
     5    18    19   ar
     6    19    20   ar
     7    20    21   ar
     8    21    22    1
     9    21    23   ar
    10    23    24   ar
    11    24    25   ar
    12    25    26   ar
    13    26    27   ar
    14    27    28    1
    15     2     3    1
    16     3     4   ar
    17     4     5   ar
    18     5     6    2
    19     5     7   ar
    20     7     8   ar
    21     8     9   ar
    22     9    11    1
    23    11    12   ar
    24    12    13   ar
    25    13    14   ar
    26    14    15   ar
    27    27    17   ar
    28     9     3   ar
    29    15    11   ar
    30    25    19   ar
    31    28    29    1
    32    28    30    1
    33     4    10    1
@<TRIPOS>MOLECULE
*****
 30 33 0 0 0
SMALL
GASTEIGER

@<TRIPOS>ATOM
      1 C         140.9349  139.1467  165.3632 C.3     1  UNL1        0.0539
      2 C         139.7030  139.7572  165.9629 C.3     1  UNL1        0.2052
      3 C         139.7724  140.4198  167.3069 C.ar    1  UNL1        0.0940
      4 N         139.3275  139.6784  168.5325 N.ar    1  UNL1       -0.3204
      5 C         139.3969  140.3410  169.8765 C.ar    1  UNL1        0.2577
      6 O         138.9519  139.5995  171.1021 O.2     1  UNL1       -0.2672
      7 C         139.9112  141.7451  169.9948 C.ar    1  UNL1        0.0621
      8 C         140.3562  142.4865  168.7690 C.ar    1  UNL1        0.0253
      9 C         140.2868  141.8239  167.4251 C.ar    1  UNL1        0.0979
     10 H         138.9899  138.7568  168.4549 H       1  UNL1        0.1688
     11 N         140.7317  142.5654  166.1994 N.ar    1  UNL1       -0.2269
     12 C         142.1262  142.6005  165.6478 C.ar    1  UNL1        0.1021
     13 C         142.1166  143.4587  164.4176 C.ar    1  UNL1        0.0431
     14 C         140.7161  143.9541  164.2089 C.ar    1  UNL1        0.1221
     15 N         139.8602  143.4019  165.3102 N.ar    1  UNL1       -0.1634
     16 O         138.4017  139.7052  165.2187 O.3     1  UNL1       -0.4704
     17 C         138.3605  140.0351  163.7560 C.ar    1  UNL1        0.1698
     18 C         138.9241  139.0720  162.7537 C.ar    1  UNL1        0.0414
     19 C         138.8829  139.4019  161.2910 C.ar    1  UNL1        0.0230
     20 C         139.4465  138.4388  160.2887 C.ar    1  UNL1        0.0312
     21 C         139.4053  138.7688  158.8261 C.ar    1  UNL1        0.1402
     22 F         139.9690  137.8056  157.8237 F       1  UNL1       -0.2042
     23 C         138.8004  140.0619  158.3657 C.ar    1  UNL1        0.0312
     24 C         138.2368  141.0251  159.3680 C.ar    1  UNL1        0.0215
     25 C         138.2780  140.6951  160.8306 C.ar    1  UNL1        0.0830
     26 N         137.7144  141.6582  161.8330 N.ar    1  UNL1       -0.2280
     27 C         137.7556  141.3283  163.2956 C.ar    1  UNL1        0.1596
     28 N         137.1919  142.2914  164.2980 N.pl3   1  UNL1       -0.3402
     29 H         136.7949  143.1402  163.9959 H       1  UNL1        0.1438
     30 H         137.2190  142.0748  165.2580 H       1  UNL1        0.1438
@<TRIPOS>BOND
     1     2     1    1
     2     2    16    1
     3    16    17    1
     4    17    18   ar
     5    18    19   ar
     6    19    20   ar
     7    20    21   ar
     8    21    22    1
     9    21    23   ar
    10    23    24   ar
    11    24    25   ar
    12    25    26   ar
    13    26    27   ar
    14    27    28    1
    15     2     3    1
    16     3     4   ar
    17     4     5   ar
    18     5     6    2
    19     5     7   ar
    20     7     8   ar
    21     8     9   ar
    22     9    11    1
    23    11    12   ar
    24    12    13   ar
    25    13    14   ar
    26    14    15   ar
    27    27    17   ar
    28     9     3   ar
    29    15    11   ar
    30    25    19   ar
    31    28    29    1
    32    28    30    1
    33     4    10    1
@<TRIPOS>MOLECULE
*****
 30 33 0 0 0
SMALL
GASTEIGER

@<TRIPOS>ATOM
      1 C         141.0861  142.8910  164.5583 C.3     1  UNL1        0.0539
      2 C         139.9076  142.3792  165.3322 C.3     1  UNL1        0.2052
      3 C         140.0443  142.0791  166.7955 C.ar    1  UNL1        0.0940
      4 N         140.2346  143.1981  167.7761 N.ar    1  UNL1       -0.3204
      5 C         140.3713  142.8980  169.2394 C.ar    1  UNL1        0.2577
      6 O         140.5617  144.0170  170.2199 O.2     1  UNL1       -0.2672
      7 C         140.3176  141.4788  169.7221 C.ar    1  UNL1        0.0621
      8 C         140.1272  140.3597  168.7415 C.ar    1  UNL1        0.0253
      9 C         139.9906  140.6599  167.2783 C.ar    1  UNL1        0.0979
     10 H         140.2699  144.1295  167.4592 H       1  UNL1        0.1688
     11 N         139.8002  139.5408  166.2976 N.ar    1  UNL1       -0.2269
     12 C         138.4996  138.8717  165.9651 C.ar    1  UNL1        0.1021
     13 C         138.7726  137.8118  164.9393 C.ar    1  UNL1        0.0431
     14 C         140.2420  137.8259  164.6380 C.ar    1  UNL1        0.1221
     15 N         140.8771  138.8946  165.4775 N.ar    1  UNL1       -0.1634
     16 O         138.5923  142.1675  164.6428 O.3     1  UNL1       -0.4704
     17 C         138.5455  141.9934  163.1536 C.ar    1  UNL1        0.1698
     18 C         138.9994  140.7048  162.5345 C.ar    1  UNL1        0.0414
     19 C         138.9526  140.5308  161.0453 C.ar    1  UNL1        0.0230
     20 C         139.4066  139.2422  160.4262 C.ar    1  UNL1        0.0312
     21 C         139.3598  139.0682  158.9371 C.ar    1  UNL1        0.1402
     22 F         139.8138  137.7795  158.3179 F       1  UNL1       -0.2042
     23 C         138.8589  140.1828  158.0671 C.ar    1  UNL1        0.0312
     24 C         138.4049  141.4714  158.6863 C.ar    1  UNL1        0.0215
     25 C         138.4518  141.6454  160.1754 C.ar    1  UNL1        0.0830
     26 N         137.9978  142.9340  160.7946 N.ar    1  UNL1       -0.2280
     27 C         138.0446  143.1080  162.2837 C.ar    1  UNL1        0.1596
     28 N         137.5906  144.3967  162.9029 N.pl3   1  UNL1       -0.3402
     29 H         137.2619  145.1282  162.3319 H       1  UNL1        0.1438
     30 H         137.6214  144.5109  163.8803 H       1  UNL1        0.1438
@<TRIPOS>BOND
     1     2     1    1
     2     2    16    1
     3    16    17    1
     4    17    18   ar
     5    18    19   ar
     6    19    20   ar
     7    20    21   ar
     8    21    22    1
     9    21    23   ar
    10    23    24   ar
    11    24    25   ar
    12    25    26   ar
    13    26    27   ar
    14    27    28    1
    15     2     3    1
    16     3     4   ar
    17     4     5   ar
    18     5     6    2
    19     5     7   ar
    20     7     8   ar
    21     8     9   ar
    22     9    11    1
    23    11    12   ar
    24    12    13   ar
    25    13    14   ar
    26    14    15   ar
    27    27    17   ar
    28     9     3   ar
    29    15    11   ar
    30    25    19   ar
    31    28    29    1
    32    28    30    1
    33     4    10    1
@<TRIPOS>MOLECULE
*****
 30 33 0 0 0
SMALL
GASTEIGER

@<TRIPOS>ATOM
      1 C         145.5161  141.4123  163.2596 C.3     1  UNL1        0.0539
      2 C         144.5680  140.4158  162.6613 C.3     1  UNL1        0.2052
      3 C         143.9437  140.6839  161.3239 C.ar    1  UNL1        0.0940
      4 N         144.0974  139.6895  160.2116 N.ar    1  UNL1       -0.3204
      5 C         143.4731  139.9576  158.8742 C.ar    1  UNL1        0.2577
      6 O         143.6268  138.9632  157.7618 O.2     1  UNL1       -0.2672
      7 C         142.6949  141.2201  158.6494 C.ar    1  UNL1        0.0621
      8 C         142.5412  142.2145  159.7619 C.ar    1  UNL1        0.0253
      9 C         143.1655  141.9464  161.0991 C.ar    1  UNL1        0.0979
     10 H         144.6082  138.8609  160.3592 H       1  UNL1        0.1688
     11 N         143.0117  142.9409  162.2116 N.ar    1  UNL1       -0.2269
     12 C         142.0725  142.8238  163.3752 C.ar    1  UNL1        0.1021
     13 C         142.2505  144.0375  164.2385 C.ar    1  UNL1        0.0431
     14 C         143.2998  144.9047  163.6084 C.ar    1  UNL1        0.1221
     15 N         143.7703  144.2269  162.3556 N.ar    1  UNL1       -0.1634
     16 O         144.2443  139.1512  163.4002 O.3     1  UNL1       -0.4704
     17 C         142.8640  138.9339  163.9459 C.ar    1  UNL1        0.1698
     18 C         142.4614  139.5707  165.2429 C.ar    1  UNL1        0.0414
     19 C         141.0812  139.3533  165.7886 C.ar    1  UNL1        0.0230
     20 C         140.6786  139.9901  167.0857 C.ar    1  UNL1        0.0312
     21 C         139.2984  139.7727  167.6313 C.ar    1  UNL1        0.1402
     22 F         138.8958  140.4096  168.9284 F       1  UNL1       -0.2042
     23 C         138.3208  138.9185  166.8799 C.ar    1  UNL1        0.0312
     24 C         138.7234  138.2817  165.5829 C.ar    1  UNL1        0.0215
     25 C         140.1036  138.4991  165.0372 C.ar    1  UNL1        0.0830
     26 N         140.5062  137.8623  163.7401 N.ar    1  UNL1       -0.2280
     27 C         141.8864  138.0797  163.1945 C.ar    1  UNL1        0.1596
     28 N         142.2890  137.4428  161.8974 N.pl3   1  UNL1       -0.3402
     29 H         141.6474  136.8822  161.4042 H       1  UNL1        0.1438
     30 H         143.1949  137.5855  161.5393 H       1  UNL1        0.1438
@<TRIPOS>BOND
     1     2     1    1
     2     2    16    1
     3    16    17    1
     4    17    18   ar
     5    18    19   ar
     6    19    20   ar
     7    20    21   ar
     8    21    22    1
     9    21    23   ar
    10    23    24   ar
    11    24    25   ar
    12    25    26   ar
    13    26    27   ar
    14    27    28    1
    15     2     3    1
    16     3     4   ar
    17     4     5   ar
    18     5     6    2
    19     5     7   ar
    20     7     8   ar
    21     8     9   ar
    22     9    11    1
    23    11    12   ar
    24    12    13   ar
    25    13    14   ar
    26    14    15   ar
    27    27    17   ar
    28     9     3   ar
    29    15    11   ar
    30    25    19   ar
    31    28    29    1
    32    28    30    1
    33     4    10    1
@<TRIPOS>MOLECULE
*****
 30 33 0 0 0
SMALL
GASTEIGER

@<TRIPOS>ATOM
      1 C         137.8790  138.4767  166.6623 C.3     1  UNL1        0.0539
      2 C         138.7511  139.5514  166.0840 C.3     1  UNL1        0.2052
      3 C         140.2167  139.3015  165.8843 C.ar    1  UNL1        0.0940
      4 N         140.7001  138.6377  164.6291 N.ar    1  UNL1       -0.3204
      5 C         142.1656  138.3878  164.4294 C.ar    1  UNL1        0.2577
      6 O         142.6490  137.7240  163.1741 O.2     1  UNL1       -0.2672
      7 C         143.1477  138.8017  165.4850 C.ar    1  UNL1        0.0621
      8 C         142.6642  139.4654  166.7403 C.ar    1  UNL1        0.0253
      9 C         141.1987  139.7153  166.9399 C.ar    1  UNL1        0.0979
     10 H         140.0555  138.3661  163.9363 H       1  UNL1        0.1688
     11 N         140.7152  140.3791  168.1952 N.ar    1  UNL1       -0.2269
     12 C         140.6351  141.8574  168.4363 C.ar    1  UNL1        0.1021
     13 C         140.0973  142.0730  169.8199 C.ar    1  UNL1        0.0431
     14 C         139.8451  140.7279  170.4340 C.ar    1  UNL1        0.1221
     15 N         140.2270  139.6809  169.4298 N.ar    1  UNL1       -0.1634
     16 O         138.1578  140.8760  165.7055 O.3     1  UNL1       -0.4704
     17 C         138.7916  141.7002  164.6242 C.ar    1  UNL1        0.1698
     18 C         140.0728  142.4325  164.8929 C.ar    1  UNL1        0.0414
     19 C         140.7066  143.2567  163.8116 C.ar    1  UNL1        0.0230
     20 C         141.9877  143.9890  164.0803 C.ar    1  UNL1        0.0312
     21 C         142.6215  144.8131  162.9991 C.ar    1  UNL1        0.1402
     22 F         143.9027  145.5455  163.2677 F       1  UNL1       -0.2042
     23 C         141.9741  144.9049  161.6491 C.ar    1  UNL1        0.0312
     24 C         140.6929  144.1725  161.3804 C.ar    1  UNL1        0.0215
     25 C         140.0592  143.3484  162.4616 C.ar    1  UNL1        0.0830
     26 N         138.7779  142.6160  162.1929 N.ar    1  UNL1       -0.2280
     27 C         138.1442  141.7919  163.2742 C.ar    1  UNL1        0.1596
     28 N         136.8630  141.0595  163.0055 N.pl3   1  UNL1       -0.3402
     29 H         136.4380  141.1197  162.1195 H       1  UNL1        0.1438
     30 H         136.4470  140.5186  163.7152 H       1  UNL1        0.1438
@<TRIPOS>BOND
     1     2     1    1
     2     2    16    1
     3    16    17    1
     4    17    18   ar
     5    18    19   ar
     6    19    20   ar
     7    20    21   ar
     8    21    22    1
     9    21    23   ar
    10    23    24   ar
    11    24    25   ar
    12    25    26   ar
    13    26    27   ar
    14    27    28    1
    15     2     3    1
    16     3     4   ar
    17     4     5   ar
    18     5     6    2
    19     5     7   ar
    20     7     8   ar
    21     8     9   ar
    22     9    11    1
    23    11    12   ar
    24    12    13   ar
    25    13    14   ar
    26    14    15   ar
    27    27    17   ar
    28     9     3   ar
    29    15    11   ar
    30    25    19   ar
    31    28    29    1
    32    28    30    1
    33     4    10    1
