@<TRIPOS>MOLECULE
*****
 30 33 0 0 0
SMALL
GASTEIGER

@<TRIPOS>ATOM
      1 N         144.2122  140.0215  163.7841 N.3     1  UNL1       -0.2700
      2 C         143.7368  139.7336  165.1773 C.3     1  UNL1        0.0897
      3 C         142.5993  138.7814  165.3999 C.3     1  UNL1        0.0897
      4 N         141.9373  138.1171  164.2292 N.3     1  UNL1       -0.2700
      5 C         142.4127  138.4050  162.8360 C.3     1  UNL1        0.0897
      6 C         143.5501  139.3572  162.6135 C.3     1  UNL1        0.0897
      7 C         145.3497  140.9737  163.5615 C.3     1  UNL1        0.0769
      8 C         145.2011  142.4194  163.9325 C.3     1  UNL1        0.0437
      9 C         142.4527  143.8884  161.4752 C.ar    1  UNL1        0.0345
     10 C         143.6229  143.1000  161.9841 C.ar    1  UNL1        0.0026
     11 C         144.0309  143.2078  163.4236 C.ar    1  UNL1       -0.0203
     12 C         143.2687  144.1041  164.3540 C.ar    1  UNL1       -0.0035
     13 C         142.0985  144.8926  163.8450 C.ar    1  UNL1        0.0104
     14 C         141.6905  144.7847  162.4056 C.ar    1  UNL1        0.0741
     15 C         141.1022  142.6971  159.6025 C.3     1  UNL1        0.0742
     16 S         142.0447  143.7806  160.0357 S.3     1  UNL1       -0.1121
     17 C         140.5203  145.5732  161.8966 C.1     1  UNL1        0.1009
     18 N         139.3502  146.3616  161.3876 N.1     1  UNL1       -0.1908
     19 C         140.7998  137.1649  164.4519 C.3     1  UNL1        0.0769
     20 C         139.4436  137.6896  164.8201 C.3     1  UNL1        0.0437
     21 C         139.0335  139.0696  164.3988 C.ar    1  UNL1       -0.0210
     22 C         138.8999  140.1577  165.4225 C.ar    1  UNL1       -0.0040
     23 C         138.4898  141.5376  165.0012 C.ar    1  UNL1        0.0059
     24 C         138.2133  141.8294  163.5561 C.ar    1  UNL1        0.0751
     25 C         138.3469  140.7413  162.5323 C.ar    1  UNL1        0.0272
     26 C         138.7570  139.3614  162.9536 C.ar    1  UNL1       -0.0047
     27 C         138.0112  141.3231  161.1911 C.3     1  UNL1        0.2356
     28 O         137.6701  142.7707  161.3860 O.3     1  UNL1       -0.4404
     29 C         137.7950  143.0837  162.8476 C.2     1  UNL1        0.3413
     30 O         137.5454  144.4168  163.4883 O.2     1  UNL1       -0.2449
@<TRIPOS>BOND
     1    15    16    1
     2    16     9    1
     3     9    10   ar
     4    10    11   ar
     5    11     8    1
     6     8     7    1
     7     7     1    1
     8     1     2    1
     9     2     3    1
    10     3     4    1
    11     4    19    1
    12    19    20    1
    13    20    21    1
    14    21    22   ar
    15    22    23   ar
    16    23    24   ar
    17    24    25   ar
    18    25    26   ar
    19    25    27    1
    20    27    28    1
    21    28    29    1
    22    29    30    2
    23     4     5    1
    24     5     6    1
    25    11    12   ar
    26    12    13   ar
    27    13    14   ar
    28    14    17    1
    29    17    18    3
    30    14     9   ar
    31     6     1    1
    32    26    21   ar
    33    29    24    1
@<TRIPOS>MOLECULE
*****
 30 33 0 0 0
SMALL
GASTEIGER

@<TRIPOS>ATOM
      1 N         138.0695  143.1119  162.7296 N.3     1  UNL1       -0.2700
      2 C         138.3479  142.6687  161.3239 C.3     1  UNL1        0.0897
      3 C         138.2571  141.2154  160.9640 C.3     1  UNL1        0.0897
      4 N         137.8880  140.2053  162.0097 N.3     1  UNL1       -0.2700
      5 C         137.6097  140.6486  163.4154 C.3     1  UNL1        0.0897
      6 C         137.7004  142.1019  163.7754 C.3     1  UNL1        0.0897
      7 C         138.1603  144.5653  163.0897 C.3     1  UNL1        0.0769
      8 C         139.3226  145.0676  163.8939 C.3     1  UNL1        0.0437
      9 C         142.5786  142.9492  164.7067 C.ar    1  UNL1        0.0345
     10 C         141.2305  143.5898  164.8561 C.ar    1  UNL1        0.0026
     11 C         140.6706  144.4270  163.7444 C.ar    1  UNL1       -0.0203
     12 C         141.4588  144.6235  162.4834 C.ar    1  UNL1       -0.0035
     13 C         142.8069  143.9828  162.3341 C.ar    1  UNL1        0.0104
     14 C         143.3667  143.1457  163.4457 C.ar    1  UNL1        0.0741
     15 C         142.3390  141.8936  167.0686 C.3     1  UNL1        0.0742
     16 S         143.1385  142.1121  165.8184 S.3     1  UNL1       -0.1121
     17 C         144.7148  142.5050  163.2963 C.1     1  UNL1        0.1009
     18 N         146.0629  141.8644  163.1470 N.1     1  UNL1       -0.1908
     19 C         137.7973  138.7520  161.6496 C.3     1  UNL1        0.0769
     20 C         139.0443  137.9239  161.5531 C.3     1  UNL1        0.0437
     21 C         140.1082  138.0450  162.6036 C.ar    1  UNL1       -0.0210
     22 C         139.7902  137.7229  164.0337 C.ar    1  UNL1       -0.0040
     23 C         140.8540  137.8440  165.0841 C.ar    1  UNL1        0.0059
     24 C         142.2359  138.2871  164.7045 C.ar    1  UNL1        0.0751
     25 C         142.5539  138.6092  163.2745 C.ar    1  UNL1        0.0272
     26 C         141.4900  138.4881  162.2240 C.ar    1  UNL1       -0.0047
     27 C         143.9951  139.0184  163.2010 C.3     1  UNL1        0.2356
     28 O         144.5678  138.9493  164.5856 O.3     1  UNL1       -0.4404
     29 C         143.4806  138.4973  165.5149 C.2     1  UNL1        0.3413
     30 O         143.6145  138.2917  166.9947 O.2     1  UNL1       -0.2449
@<TRIPOS>BOND
     1    15    16    1
     2    16     9    1
     3     9    10   ar
     4    10    11   ar
     5    11     8    1
     6     8     7    1
     7     7     1    1
     8     1     2    1
     9     2     3    1
    10     3     4    1
    11     4    19    1
    12    19    20    1
    13    20    21    1
    14    21    22   ar
    15    22    23   ar
    16    23    24   ar
    17    24    25   ar
    18    25    26   ar
    19    25    27    1
    20    27    28    1
    21    28    29    1
    22    29    30    2
    23     4     5    1
    24     5     6    1
    25    11    12   ar
    26    12    13   ar
    27    13    14   ar
    28    14    17    1
    29    17    18    3
    30    14     9   ar
    31     6     1    1
    32    26    21   ar
    33    29    24    1
@<TRIPOS>MOLECULE
*****
 30 33 0 0 0
SMALL
GASTEIGER

@<TRIPOS>ATOM
      1 N         137.8553  140.6624  161.5633 N.3     1  UNL1       -0.2700
      2 C         138.6021  141.7043  160.7843 C.3     1  UNL1        0.0897
      3 C         138.8407  143.0594  161.3814 C.3     1  UNL1        0.0897
      4 N         138.3326  143.3727  162.7575 N.3     1  UNL1       -0.2700
      5 C         137.5858  142.3308  163.5365 C.3     1  UNL1        0.0897
      6 C         137.3472  140.9757  162.9394 C.3     1  UNL1        0.0897
      7 C         137.6167  139.3072  160.9662 C.3     1  UNL1        0.0769
      8 C         137.9614  138.0729  161.7456 C.3     1  UNL1        0.0437
      9 C         141.7148  138.2046  163.0281 C.ar    1  UNL1        0.0345
     10 C         140.5309  138.2037  162.1070 C.ar    1  UNL1        0.0026
     11 C         139.1452  138.0738  162.6667 C.ar    1  UNL1       -0.0203
     12 C         138.9435  137.9450  164.1475 C.ar    1  UNL1       -0.0035
     13 C         140.1275  137.9459  165.0686 C.ar    1  UNL1        0.0104
     14 C         141.5130  138.0757  164.5089 C.ar    1  UNL1        0.0741
     15 C         143.3924  137.8681  161.0730 C.3     1  UNL1        0.0742
     16 S         143.1004  138.3344  162.4685 S.3     1  UNL1       -0.1121
     17 C         142.6970  138.0767  165.4300 C.1     1  UNL1        0.1009
     18 N         143.8809  138.0776  166.3511 N.1     1  UNL1       -0.1908
     19 C         138.5712  144.7279  163.3547 C.3     1  UNL1        0.0769
     20 C         139.7017  144.9342  164.3187 C.3     1  UNL1        0.0437
     21 C         140.9294  144.0770  164.2294 C.ar    1  UNL1       -0.0210
     22 C         141.0800  142.8864  165.1292 C.ar    1  UNL1       -0.0040
     23 C         142.3077  142.0294  165.0399 C.ar    1  UNL1        0.0059
     24 C         143.3849  142.3629  164.0507 C.ar    1  UNL1        0.0751
     25 C         143.2344  143.5535  163.1509 C.ar    1  UNL1        0.0272
     26 C         142.0066  144.4106  163.2403 C.ar    1  UNL1       -0.0047
     27 C         144.4535  143.6339  162.2807 C.3     1  UNL1        0.2356
     28 O         145.3575  142.4930  162.6427 O.3     1  UNL1       -0.4404
     29 C         144.6971  141.7074  163.7366 C.2     1  UNL1        0.3413
     30 O         145.2515  140.4816  164.4000 O.2     1  UNL1       -0.2449
@<TRIPOS>BOND
     1    15    16    1
     2    16     9    1
     3     9    10   ar
     4    10    11   ar
     5    11     8    1
     6     8     7    1
     7     7     1    1
     8     1     2    1
     9     2     3    1
    10     3     4    1
    11     4    19    1
    12    19    20    1
    13    20    21    1
    14    21    22   ar
    15    22    23   ar
    16    23    24   ar
    17    24    25   ar
    18    25    26   ar
    19    25    27    1
    20    27    28    1
    21    28    29    1
    22    29    30    2
    23     4     5    1
    24     5     6    1
    25    11    12   ar
    26    12    13   ar
    27    13    14   ar
    28    14    17    1
    29    17    18    3
    30    14     9   ar
    31     6     1    1
    32    26    21   ar
    33    29    24    1
@<TRIPOS>MOLECULE
*****
 30 33 0 0 0
SMALL
GASTEIGER

@<TRIPOS>ATOM
      1 N         144.0926  139.8812  164.2440 N.3     1  UNL1       -0.2700
      2 C         143.6753  139.0297  163.0818 C.3     1  UNL1        0.0897
      3 C         142.4541  138.1649  163.1860 C.3     1  UNL1        0.0897
      4 N         141.6503  138.1517  164.4524 N.3     1  UNL1       -0.2700
      5 C         142.0676  139.0032  165.6145 C.3     1  UNL1        0.0897
      6 C         143.2887  139.8680  165.5103 C.3     1  UNL1        0.0897
      7 C         145.3138  140.7461  164.1399 C.3     1  UNL1        0.0769
      8 C         145.5193  141.6113  162.9319 C.3     1  UNL1        0.0437
      9 C         142.5143  144.1994  162.7838 C.ar    1  UNL1        0.0345
     10 C         143.6468  143.3713  163.3146 C.ar    1  UNL1        0.0026
     11 C         144.3868  142.4395  162.4012 C.ar    1  UNL1       -0.0203
     12 C         143.9945  142.3359  160.9571 C.ar    1  UNL1       -0.0035
     13 C         142.8620  143.1642  160.4264 C.ar    1  UNL1        0.0104
     14 C         142.1220  144.0959  161.3398 C.ar    1  UNL1        0.0741
     15 C         140.5718  144.6450  164.4506 C.3     1  UNL1        0.0742
     16 S         141.7743  145.1312  163.6972 S.3     1  UNL1       -0.1121
     17 C         140.9895  144.9241  160.8091 C.1     1  UNL1        0.1009
     18 N         139.8570  145.7523  160.2784 N.1     1  UNL1       -0.1908
     19 C         140.4291  137.2868  164.5565 C.3     1  UNL1        0.0769
     20 C         139.0880  137.9099  164.8083 C.3     1  UNL1        0.0437
     21 C         138.7733  139.2649  164.2471 C.ar    1  UNL1       -0.0210
     22 C         138.4235  140.3955  165.1687 C.ar    1  UNL1       -0.0040
     23 C         138.1089  141.7505  164.6076 C.ar    1  UNL1        0.0059
     24 C         138.1440  141.9749  163.1249 C.ar    1  UNL1        0.0751
     25 C         138.4938  140.8443  162.2033 C.ar    1  UNL1        0.0272
     26 C         138.8085  139.4893  162.7644 C.ar    1  UNL1       -0.0047
     27 C         138.4484  141.3622  160.7963 C.3     1  UNL1        0.2356
     28 O         138.0705  142.8130  160.8483 O.3     1  UNL1       -0.4404
     29 C         137.8824  143.1917  162.2874 C.2     1  UNL1        0.3413
     30 O         137.4998  144.5487  162.7993 O.2     1  UNL1       -0.2449
@<TRIPOS>BOND
     1    15    16    1
     2    16     9    1
     3     9    10   ar
     4    10    11   ar
     5    11     8    1
     6     8     7    1
     7     7     1    1
     8     1     2    1
     9     2     3    1
    10     3     4    1
    11     4    19    1
    12    19    20    1
    13    20    21    1
    14    21    22   ar
    15    22    23   ar
    16    23    24   ar
    17    24    25   ar
    18    25    26   ar
    19    25    27    1
    20    27    28    1
    21    28    29    1
    22    29    30    2
    23     4     5    1
    24     5     6    1
    25    11    12   ar
    26    12    13   ar
    27    13    14   ar
    28    14    17    1
    29    17    18    3
    30    14     9   ar
    31     6     1    1
    32    26    21   ar
    33    29    24    1
@<TRIPOS>MOLECULE
*****
 30 33 0 0 0
SMALL
GASTEIGER

@<TRIPOS>ATOM
      1 N         139.9708  139.2954  161.5695 N.3     1  UNL1       -0.2700
      2 C         139.5105  138.1415  162.4101 C.3     1  UNL1        0.0897
      3 C         140.2861  137.7474  163.6319 C.3     1  UNL1        0.0897
      4 N         141.5220  138.5070  164.0132 N.3     1  UNL1       -0.2700
      5 C         141.9823  139.6609  163.1726 C.3     1  UNL1        0.0897
      6 C         141.2067  140.0551  161.9507 C.3     1  UNL1        0.0897
      7 C         139.1951  139.6896  160.3475 C.3     1  UNL1        0.0769
      8 C         138.1731  140.7845  160.4288 C.3     1  UNL1        0.0437
      9 C         138.8676  143.9916  162.6609 C.ar    1  UNL1        0.0345
     10 C         138.8675  143.0508  161.4926 C.ar    1  UNL1        0.0026
     11 C         138.1732  141.7252  161.5971 C.ar    1  UNL1       -0.0203
     12 C         137.4789  141.3405  162.8699 C.ar    1  UNL1       -0.0035
     13 C         137.4790  142.2813  164.0382 C.ar    1  UNL1        0.0104
     14 C         138.1733  143.6068  163.9337 C.ar    1  UNL1        0.0741
     15 C         141.0451  145.4052  162.7625 C.3     1  UNL1        0.0742
     16 S         139.5619  145.3171  162.5564 S.3     1  UNL1       -0.1121
     17 C         138.1734  144.5477  165.1020 C.1     1  UNL1        0.1009
     18 N         138.1735  145.4884  166.2703 N.1     1  UNL1       -0.1908
     19 C         142.2977  138.1128  165.2351 C.3     1  UNL1        0.0769
     20 C         143.1055  139.1383  165.9738 C.3     1  UNL1        0.0437
     21 C         142.5090  139.8620  167.1445 C.ar    1  UNL1       -0.0210
     22 C         142.6876  139.3199  168.5317 C.ar    1  UNL1       -0.0040
     23 C         142.0911  140.0436  169.7023 C.ar    1  UNL1        0.0059
     24 C         141.3159  141.3094  169.4857 C.ar    1  UNL1        0.0751
     25 C         141.1372  141.8514  168.0986 C.ar    1  UNL1        0.0272
     26 C         141.7337  141.1277  166.9280 C.ar    1  UNL1       -0.0047
     27 C         140.3288  143.1113  168.1939 C.3     1  UNL1        0.2356
     28 O         140.0078  143.3479  169.6399 O.3     1  UNL1       -0.4404
     29 C         140.6178  142.2343  170.4384 C.2     1  UNL1        0.3413
     30 O         140.5430  142.0736  171.9278 O.2     1  UNL1       -0.2449
@<TRIPOS>BOND
     1    15    16    1
     2    16     9    1
     3     9    10   ar
     4    10    11   ar
     5    11     8    1
     6     8     7    1
     7     7     1    1
     8     1     2    1
     9     2     3    1
    10     3     4    1
    11     4    19    1
    12    19    20    1
    13    20    21    1
    14    21    22   ar
    15    22    23   ar
    16    23    24   ar
    17    24    25   ar
    18    25    26   ar
    19    25    27    1
    20    27    28    1
    21    28    29    1
    22    29    30    2
    23     4     5    1
    24     5     6    1
    25    11    12   ar
    26    12    13   ar
    27    13    14   ar
    28    14    17    1
    29    17    18    3
    30    14     9   ar
    31     6     1    1
    32    26    21   ar
    33    29    24    1
@<TRIPOS>MOLECULE
*****
 30 33 0 0 0
SMALL
GASTEIGER

@<TRIPOS>ATOM
      1 N         139.4140  137.7327  164.4042 N.3     1  UNL1       -0.2700
      2 C         140.8356  137.4038  164.7520 C.3     1  UNL1        0.0897
      3 C         141.8749  137.3344  163.6727 C.3     1  UNL1        0.0897
      4 N         141.4927  137.5940  162.2456 N.3     1  UNL1       -0.2700
      5 C         140.0712  137.9229  161.8978 C.3     1  UNL1        0.0897
      6 C         139.0319  137.9923  162.9771 C.3     1  UNL1        0.0897
      7 C         138.3746  137.8021  165.4835 C.3     1  UNL1        0.0769
      8 C         138.1589  139.0817  166.2358 C.3     1  UNL1        0.0437
      9 C         138.7879  142.4642  164.2578 C.ar    1  UNL1        0.0345
     10 C         138.1361  141.1981  164.7291 C.ar    1  UNL1        0.0026
     11 C         138.8106  140.3478  165.7645 C.ar    1  UNL1       -0.0203
     12 C         140.1369  140.7636  166.3286 C.ar    1  UNL1       -0.0035
     13 C         140.7886  142.0298  165.8573 C.ar    1  UNL1        0.0104
     14 C         140.1141  142.8801  164.8219 C.ar    1  UNL1        0.0741
     15 C         137.9708  142.8123  161.8162 C.3     1  UNL1        0.0742
     16 S         138.1134  143.3146  163.2224 S.3     1  UNL1       -0.1121
     17 C         140.7659  144.1462  164.3506 C.1     1  UNL1        0.1009
     18 N         141.4176  145.4123  163.8792 N.1     1  UNL1       -0.1908
     19 C         142.5322  137.5246  161.1663 C.3     1  UNL1        0.0769
     20 C         143.9046  138.0785  161.4101 C.3     1  UNL1        0.0437
     21 C         144.0710  139.3688  162.1568 C.ar    1  UNL1       -0.0210
     22 C         144.3902  139.3514  163.6223 C.ar    1  UNL1       -0.0040
     23 C         144.5565  140.6417  164.3690 C.ar    1  UNL1        0.0059
     24 C         144.4037  141.9493  163.6501 C.ar    1  UNL1        0.0751
     25 C         144.0845  141.9666  162.1846 C.ar    1  UNL1        0.0272
     26 C         143.9182  140.6764  161.4380 C.ar    1  UNL1       -0.0047
     27 C         143.9933  143.3985  161.7470 C.3     1  UNL1        0.2356
     28 O         144.2561  144.2661  162.9421 O.3     1  UNL1       -0.4404
     29 C         144.5097  143.3705  164.1183 C.2     1  UNL1        0.3413
     30 O         144.8157  143.8174  165.5171 O.2     1  UNL1       -0.2449
@<TRIPOS>BOND
     1    15    16    1
     2    16     9    1
     3     9    10   ar
     4    10    11   ar
     5    11     8    1
     6     8     7    1
     7     7     1    1
     8     1     2    1
     9     2     3    1
    10     3     4    1
    11     4    19    1
    12    19    20    1
    13    20    21    1
    14    21    22   ar
    15    22    23   ar
    16    23    24   ar
    17    24    25   ar
    18    25    26   ar
    19    25    27    1
    20    27    28    1
    21    28    29    1
    22    29    30    2
    23     4     5    1
    24     5     6    1
    25    11    12   ar
    26    12    13   ar
    27    13    14   ar
    28    14    17    1
    29    17    18    3
    30    14     9   ar
    31     6     1    1
    32    26    21   ar
    33    29    24    1
@<TRIPOS>MOLECULE
*****
 30 33 0 0 0
SMALL
GASTEIGER

@<TRIPOS>ATOM
      1 N         141.9316  138.0058  164.3437 N.3     1  UNL1       -0.2700
      2 C         142.4461  138.7579  165.5351 C.3     1  UNL1        0.0897
      3 C         143.5846  139.7220  165.3789 C.3     1  UNL1        0.0897
      4 N         144.2085  139.9339  164.0314 N.3     1  UNL1       -0.2700
      5 C         143.6939  139.1817  162.8400 C.3     1  UNL1        0.0897
      6 C         142.5555  138.2177  162.9962 C.3     1  UNL1        0.0897
      7 C         140.7930  137.0416  164.4998 C.3     1  UNL1        0.0769
      8 C         139.4101  137.5526  164.7761 C.3     1  UNL1        0.0437
      9 C         138.3654  140.6469  162.5214 C.ar    1  UNL1        0.0345
     10 C         138.7457  139.2543  162.9287 C.ar    1  UNL1        0.0026
     11 C         139.0298  138.9452  164.3688 C.ar    1  UNL1       -0.0203
     12 C         138.9337  140.0288  165.4015 C.ar    1  UNL1       -0.0035
     13 C         138.5534  141.4215  164.9942 C.ar    1  UNL1        0.0104
     14 C         138.2693  141.7305  163.5542 C.ar    1  UNL1        0.0741
     15 C         138.2149  139.8816  160.0432 C.3     1  UNL1        0.0742
     16 S         138.0812  140.9560  161.0813 S.3     1  UNL1       -0.1121
     17 C         137.8890  143.1232  163.1468 C.1     1  UNL1        0.1009
     18 N         137.5087  144.5159  162.7395 N.1     1  UNL1       -0.1908
     19 C         145.3470  140.8980  163.8753 C.3     1  UNL1        0.0769
     20 C         145.4333  141.7654  162.6545 C.3     1  UNL1        0.0437
     21 C         144.2563  142.5988  162.2419 C.ar    1  UNL1       -0.0210
     22 C         143.6958  142.4712  160.8564 C.ar    1  UNL1       -0.0040
     23 C         142.5189  143.3046  160.4439 C.ar    1  UNL1        0.0059
     24 C         141.9025  144.2656  161.4168 C.ar    1  UNL1        0.0751
     25 C         142.4629  144.3931  162.8022 C.ar    1  UNL1        0.0272
     26 C         143.6398  143.5597  163.2148 C.ar    1  UNL1       -0.0047
     27 C         141.6514  145.4178  163.5380 C.3     1  UNL1        0.2356
     28 O         140.5893  145.9236  162.6072 O.3     1  UNL1       -0.4404
     29 C         140.7445  145.2114  161.2962 C.2     1  UNL1        0.3413
     30 O         139.8915  145.4102  160.0785 O.2     1  UNL1       -0.2449
@<TRIPOS>BOND
     1    15    16    1
     2    16     9    1
     3     9    10   ar
     4    10    11   ar
     5    11     8    1
     6     8     7    1
     7     7     1    1
     8     1     2    1
     9     2     3    1
    10     3     4    1
    11     4    19    1
    12    19    20    1
    13    20    21    1
    14    21    22   ar
    15    22    23   ar
    16    23    24   ar
    17    24    25   ar
    18    25    26   ar
    19    25    27    1
    20    27    28    1
    21    28    29    1
    22    29    30    2
    23     4     5    1
    24     5     6    1
    25    11    12   ar
    26    12    13   ar
    27    13    14   ar
    28    14    17    1
    29    17    18    3
    30    14     9   ar
    31     6     1    1
    32    26    21   ar
    33    29    24    1
@<TRIPOS>MOLECULE
*****
 30 33 0 0 0
SMALL
GASTEIGER

@<TRIPOS>ATOM
      1 N         138.6194  140.0033  161.9934 N.3     1  UNL1       -0.2700
      2 C         139.6756  140.0609  160.9298 C.3     1  UNL1        0.0897
      3 C         140.0723  141.3807  160.3376 C.3     1  UNL1        0.0897
      4 N         139.4129  142.6428  160.8089 N.3     1  UNL1       -0.2700
      5 C         138.3568  142.5852  161.8725 C.3     1  UNL1        0.0897
      6 C         137.9600  141.2655  162.4647 C.3     1  UNL1        0.0897
      7 C         138.2226  138.6835  162.5857 C.3     1  UNL1        0.0769
      8 C         139.0844  138.0416  163.6321 C.3     1  UNL1        0.0437
      9 C         140.3701  140.0936  166.7763 C.ar    1  UNL1        0.0345
     10 C         140.3031  139.5078  165.3971 C.ar    1  UNL1        0.0026
     11 C         139.1514  138.6274  165.0113 C.ar    1  UNL1       -0.0203
     12 C         138.0668  138.3329  166.0047 C.ar    1  UNL1       -0.0035
     13 C         138.1339  138.9188  167.3840 C.ar    1  UNL1        0.0104
     14 C         139.2855  139.7991  167.7698 C.ar    1  UNL1        0.0741
     15 C         141.7181  142.2945  166.4784 C.3     1  UNL1        0.0742
     16 S         141.5217  140.9740  167.1622 S.3     1  UNL1       -0.1121
     17 C         139.3525  140.3850  169.1491 C.1     1  UNL1        0.1009
     18 N         139.4195  140.9709  170.5282 N.1     1  UNL1       -0.1908
     19 C         139.8098  143.9626  160.2167 C.3     1  UNL1        0.0769
     20 C         141.2552  144.3609  160.1730 C.3     1  UNL1        0.0437
     21 C         142.1242  144.1642  161.3798 C.ar    1  UNL1       -0.0210
     22 C         141.9060  145.0008  162.6055 C.ar    1  UNL1       -0.0040
     23 C         142.7749  144.8041  163.8122 C.ar    1  UNL1        0.0059
     24 C         143.8620  143.7707  163.7933 C.ar    1  UNL1        0.0751
     25 C         144.0802  142.9341  162.5676 C.ar    1  UNL1        0.0272
     26 C         143.2113  143.1308  161.3608 C.ar    1  UNL1       -0.0047
     27 C         145.2217  142.0002  162.8410 C.3     1  UNL1        0.2356
     28 O         145.7090  142.2596  164.2358 O.3     1  UNL1       -0.4404
     29 C         144.8687  143.3539  164.8243 C.2     1  UNL1        0.3413
     30 O         145.0101  143.9301  166.2020 O.2     1  UNL1       -0.2449
@<TRIPOS>BOND
     1    15    16    1
     2    16     9    1
     3     9    10   ar
     4    10    11   ar
     5    11     8    1
     6     8     7    1
     7     7     1    1
     8     1     2    1
     9     2     3    1
    10     3     4    1
    11     4    19    1
    12    19    20    1
    13    20    21    1
    14    21    22   ar
    15    22    23   ar
    16    23    24   ar
    17    24    25   ar
    18    25    26   ar
    19    25    27    1
    20    27    28    1
    21    28    29    1
    22    29    30    2
    23     4     5    1
    24     5     6    1
    25    11    12   ar
    26    12    13   ar
    27    13    14   ar
    28    14    17    1
    29    17    18    3
    30    14     9   ar
    31     6     1    1
    32    26    21   ar
    33    29    24    1
@<TRIPOS>MOLECULE
*****
 30 33 0 0 0
SMALL
GASTEIGER

@<TRIPOS>ATOM
      1 N         141.4319  137.6777  162.1444 N.3     1  UNL1       -0.2700
      2 C         141.8511  137.3520  163.5473 C.3     1  UNL1        0.0897
      3 C         140.8377  137.3571  164.6531 C.3     1  UNL1        0.0897
      4 N         139.4051  137.6879  164.3560 N.3     1  UNL1       -0.2700
      5 C         138.9859  138.0136  162.9531 C.3     1  UNL1        0.0897
      6 C         139.9993  138.0085  161.8473 C.3     1  UNL1        0.0897
      7 C         142.4454  137.6726  161.0385 C.3     1  UNL1        0.0769
      8 C         143.8395  138.1622  161.2965 C.3     1  UNL1        0.0437
      9 C         144.0954  141.9314  162.5122 C.ar    1  UNL1        0.0345
     10 C         143.8705  140.7385  161.6311 C.ar    1  UNL1        0.0026
     11 C         144.0644  139.3551  162.1776 C.ar    1  UNL1       -0.0203
     12 C         144.4831  139.1646  163.6054 C.ar    1  UNL1       -0.0035
     13 C         144.7079  140.3576  164.4865 C.ar    1  UNL1        0.0104
     14 C         144.5141  141.7409  163.9399 C.ar    1  UNL1        0.0741
     15 C         142.5599  143.7328  161.4411 C.3     1  UNL1        0.0742
     16 S         143.9016  143.3148  161.9656 S.3     1  UNL1       -0.1121
     17 C         144.7389  142.9339  164.8211 C.1     1  UNL1        0.1009
     18 N         144.9638  144.1268  165.7022 N.1     1  UNL1       -0.1908
     19 C         138.3916  137.6930  165.4619 C.3     1  UNL1        0.0769
     20 C         138.1587  138.9415  166.2600 C.3     1  UNL1        0.0437
     21 C         138.6356  140.2648  165.7388 C.ar    1  UNL1       -0.0210
     22 C         139.8937  140.8753  166.2814 C.ar    1  UNL1       -0.0040
     23 C         140.3705  142.1985  165.7602 C.ar    1  UNL1        0.0059
     24 C         139.5893  142.9112  164.6963 C.ar    1  UNL1        0.0751
     25 C         138.3312  142.3007  164.1537 C.ar    1  UNL1        0.0272
     26 C         137.8544  140.9775  164.6749 C.ar    1  UNL1       -0.0047
     27 C         137.7753  143.2299  163.1157 C.3     1  UNL1        0.2356
     28 O         138.6899  144.4148  163.0168 O.3     1  UNL1       -0.4404
     29 C         139.8110  144.2178  163.9936 C.2     1  UNL1        0.3413
     30 O         140.9532  145.1617  164.2269 O.2     1  UNL1       -0.2449
@<TRIPOS>BOND
     1    15    16    1
     2    16     9    1
     3     9    10   ar
     4    10    11   ar
     5    11     8    1
     6     8     7    1
     7     7     1    1
     8     1     2    1
     9     2     3    1
    10     3     4    1
    11     4    19    1
    12    19    20    1
    13    20    21    1
    14    21    22   ar
    15    22    23   ar
    16    23    24   ar
    17    24    25   ar
    18    25    26   ar
    19    25    27    1
    20    27    28    1
    21    28    29    1
    22    29    30    2
    23     4     5    1
    24     5     6    1
    25    11    12   ar
    26    12    13   ar
    27    13    14   ar
    28    14    17    1
    29    17    18    3
    30    14     9   ar
    31     6     1    1
    32    26    21   ar
    33    29    24    1
