@<TRIPOS>MOLECULE
*****
 30 33 0 0 0
SMALL
GASTEIGER

@<TRIPOS>ATOM
      1 C         140.3139  141.5940  167.5927 C.ar    1  UNL1        0.2200
      2 N         140.1904  142.6802  166.5656 N.ar    1  UNL1       -0.2135
      3 C         139.6436  142.3667  165.2045 C.ar    1  UNL1        0.0891
      4 C         139.2203  140.9669  164.8704 C.ar    1  UNL1        0.0357
      5 C         139.3438  139.8807  165.8975 C.ar    1  UNL1        0.0831
      6 N         139.8906  140.1943  167.2587 N.ar    1  UNL1       -0.2164
      7 C         139.5201  143.4529  164.1774 C.ar    1  UNL1        0.0645
      8 C         138.1969  143.7196  163.5232 C.ar    1  UNL1        0.1040
      9 N         138.0734  144.8058  162.4961 N.ar    1  UNL1       -0.2294
     10 C         139.2731  145.6253  162.1232 C.ar    1  UNL1        0.1277
     11 N         139.1496  146.7115  161.0961 N.pl3   1  UNL1       -0.3426
     12 C         140.5964  145.3586  162.7774 C.ar    1  UNL1        0.0635
     13 C         140.7199  144.2724  163.8045 C.ar    1  UNL1        0.1458
     14 F         142.0431  144.0058  164.4587 F       1  UNL1       -0.2040
     15 H         138.2811  146.8865  160.6668 H       1  UNL1        0.1437
     16 H         139.9370  147.2494  160.8514 H       1  UNL1        0.1437
     17 C         143.2084  142.3126  167.9175 C.3     1  UNL1        0.0242
     18 C         142.3079  142.2669  169.1163 C.3     1  UNL1        0.1052
     19 C         142.8546  142.5804  170.4774 C.3     1  UNL1        0.1619
     20 O         141.9541  142.5347  171.6762 O.3     1  UNL1       -0.3502
     21 C         140.5069  142.1754  171.5138 C.3     1  UNL1        0.1637
     22 C         139.9602  141.8618  170.1527 C.3     1  UNL1        0.1256
     23 N         140.8607  141.9076  168.9539 N.pl3   1  UNL1       -0.2748
     24 C         138.9206  138.4810  165.5635 C.3     1  UNL1        0.1456
     25 C         138.1926  137.1719  165.6422 C.3     1  UNL1        0.0297
     26 C         137.8963  138.2557  166.6360 C.3     1  UNL1        0.0297
     27 S         139.7977  138.2202  164.3750 S.O2    1  UNL1       -0.0065
     28 C         140.6749  137.9594  163.1865 C.3     1  UNL1        0.1764
     29 O         138.5950  138.2563  163.4794 O.2     1  UNL1       -0.1727
     30 O         141.0005  138.1841  165.2706 O.2     1  UNL1       -0.1727
@<TRIPOS>BOND
     1    18    17    1
     2    18    19    1
     3    19    20    1
     4    20    21    1
     5    21    22    1
     6    22    23    1
     7    23     1    1
     8     1     2   ar
     9     2     3   ar
    10     3     7    1
    11     7     8   ar
    12     8     9   ar
    13     9    10   ar
    14    10    11    1
    15    10    12   ar
    16    12    13   ar
    17    13    14    1
    18     3     4   ar
    19     4     5   ar
    20     5    24    1
    21    24    27    1
    22    27    28    1
    23    27    29    2
    24    27    30    2
    25    24    25    1
    26    25    26    1
    27     5     6   ar
    28    23    18    1
    29     6     1   ar
    30    13     7   ar
    31    26    24    1
    32    11    15    1
    33    11    16    1
@<TRIPOS>MOLECULE
*****
 30 33 0 0 0
SMALL
GASTEIGER

@<TRIPOS>ATOM
      1 C         140.3715  141.5462  167.5958 C.ar    1  UNL1        0.2200
      2 N         140.2427  142.6384  166.5757 N.ar    1  UNL1       -0.2135
      3 C         139.6803  142.3348  165.2188 C.ar    1  UNL1        0.0891
      4 C         139.2466  140.9389  164.8818 C.ar    1  UNL1        0.0357
      5 C         139.3753  139.8467  165.9018 C.ar    1  UNL1        0.0831
      6 N         139.9379  140.1504  167.2589 N.ar    1  UNL1       -0.2164
      7 C         139.5515  143.4270  164.1987 C.ar    1  UNL1        0.0645
      8 C         138.2230  143.7034  163.5594 C.ar    1  UNL1        0.1040
      9 N         138.0942  144.7956  162.5394 N.ar    1  UNL1       -0.2294
     10 C         139.2939  145.6114  162.1586 C.ar    1  UNL1        0.1277
     11 N         139.1651  146.7036  161.1385 N.pl3   1  UNL1       -0.3426
     12 C         140.6225  145.3351  162.7979 C.ar    1  UNL1        0.0635
     13 C         140.7513  144.2429  163.8179 C.ar    1  UNL1        0.1458
     14 F         142.0798  143.9666  164.4572 F       1  UNL1       -0.2040
     15 H         138.2932  146.8850  160.7190 H       1  UNL1        0.1437
     16 H         139.9525  147.2391  160.8886 H       1  UNL1        0.1437
     17 C         138.9310  140.6191  170.0586 C.3     1  UNL1        0.0242
     18 C         140.2138  141.3864  170.1842 C.3     1  UNL1        0.1052
     19 C         140.7763  141.6901  171.5411 C.3     1  UNL1        0.1619
     20 O         142.0591  142.4573  171.6667 O.3     1  UNL1       -0.3502
     21 C         142.7793  142.9209  170.4353 C.3     1  UNL1        0.1637
     22 C         142.2168  142.6172  169.0784 C.3     1  UNL1        0.1256
     23 N         140.9340  141.8499  168.9528 N.pl3   1  UNL1       -0.2748
     24 C         138.9417  138.4509  165.5649 C.3     1  UNL1        0.1456
     25 C         138.2045  137.1468  165.6414 C.3     1  UNL1        0.0297
     26 C         137.9172  138.2303  166.6382 C.3     1  UNL1        0.0297
     27 S         139.8154  138.1868  164.3747 S.O2    1  UNL1       -0.0065
     28 C         140.6893  137.9226  163.1844 C.3     1  UNL1        0.1764
     29 O         141.0219  138.1626  165.2657 O.2     1  UNL1       -0.1727
     30 O         138.6090  138.2109  163.4836 O.2     1  UNL1       -0.1727
@<TRIPOS>BOND
     1    18    17    1
     2    18    19    1
     3    19    20    1
     4    20    21    1
     5    21    22    1
     6    22    23    1
     7    23     1    1
     8     1     2   ar
     9     2     3   ar
    10     3     7    1
    11     7     8   ar
    12     8     9   ar
    13     9    10   ar
    14    10    11    1
    15    10    12   ar
    16    12    13   ar
    17    13    14    1
    18     3     4   ar
    19     4     5   ar
    20     5    24    1
    21    24    27    1
    22    27    28    1
    23    27    29    2
    24    27    30    2
    25    24    25    1
    26    25    26    1
    27     5     6   ar
    28    23    18    1
    29     6     1   ar
    30    13     7   ar
    31    26    24    1
    32    11    15    1
    33    11    16    1
@<TRIPOS>MOLECULE
*****
 30 33 0 0 0
SMALL
GASTEIGER

@<TRIPOS>ATOM
      1 C         141.2233  141.4277  167.1319 C.ar    1  UNL1        0.2200
      2 N         140.8351  142.5566  166.2237 N.ar    1  UNL1       -0.2135
      3 C         140.6365  142.3058  164.7582 C.ar    1  UNL1        0.0891
      4 C         140.8262  140.9260  164.2009 C.ar    1  UNL1        0.0357
      5 C         141.2145  139.7972  165.1092 C.ar    1  UNL1        0.0831
      6 N         141.4130  140.0481  166.5747 N.ar    1  UNL1       -0.2164
      7 C         140.2483  143.4346  163.8499 C.ar    1  UNL1        0.0645
      8 C         138.9045  143.4328  163.1835 C.ar    1  UNL1        0.1040
      9 N         138.5162  144.5617  162.2753 N.ar    1  UNL1       -0.2294
     10 C         139.4718  145.6923  162.0334 C.ar    1  UNL1        0.1277
     11 N         139.0835  146.8212  161.1251 N.pl3   1  UNL1       -0.3426
     12 C         140.8157  145.6941  162.6998 C.ar    1  UNL1        0.0635
     13 C         141.2039  144.5653  163.6080 C.ar    1  UNL1        0.1458
     14 F         142.5478  144.5670  164.2744 F       1  UNL1       -0.2040
     15 H         138.2015  146.8200  160.6877 H       1  UNL1        0.1437
     16 H         139.7107  147.5632  160.9663 H       1  UNL1        0.1437
     17 C         139.2782  140.3079  169.1226 C.3     1  UNL1        0.0242
     18 C         140.4493  141.1187  169.5927 C.3     1  UNL1        0.1052
     19 C         140.6479  141.3696  171.0582 C.3     1  UNL1        0.1619
     20 O         141.8191  142.1804  171.5283 O.3     1  UNL1       -0.3502
     21 C         142.7916  142.7402  170.5331 C.3     1  UNL1        0.1637
     22 C         142.5930  142.4894  169.0676 C.3     1  UNL1        0.1256
     23 N         141.4219  141.6786  168.5975 N.pl3   1  UNL1       -0.2748
     24 C         141.4042  138.4175  164.5520 C.3     1  UNL1        0.1456
     25 C         141.1530  136.9672  164.2632 C.3     1  UNL1        0.0297
     26 C         140.2007  137.7349  165.1314 C.3     1  UNL1        0.0297
     27 S         142.6735  138.6210  163.7792 S.O2    1  UNL1       -0.0065
     28 C         143.9429  138.8244  163.0062 C.3     1  UNL1        0.1764
     29 O         141.9050  138.5338  162.4939 O.2     1  UNL1       -0.1727
     30 O         143.4421  138.7082  165.0643 O.2     1  UNL1       -0.1727
@<TRIPOS>BOND
     1    18    17    1
     2    18    19    1
     3    19    20    1
     4    20    21    1
     5    21    22    1
     6    22    23    1
     7    23     1    1
     8     1     2   ar
     9     2     3   ar
    10     3     7    1
    11     7     8   ar
    12     8     9   ar
    13     9    10   ar
    14    10    11    1
    15    10    12   ar
    16    12    13   ar
    17    13    14    1
    18     3     4   ar
    19     4     5   ar
    20     5    24    1
    21    24    27    1
    22    27    28    1
    23    27    29    2
    24    27    30    2
    25    24    25    1
    26    25    26    1
    27     5     6   ar
    28    23    18    1
    29     6     1   ar
    30    13     7   ar
    31    26    24    1
    32    11    15    1
    33    11    16    1
@<TRIPOS>MOLECULE
*****
 30 33 0 0 0
SMALL
GASTEIGER

@<TRIPOS>ATOM
      1 C         141.6490  140.7313  163.2050 C.ar    1  UNL1        0.2200
      2 N         141.9948  140.4929  164.6450 N.ar    1  UNL1       -0.2135
      3 C         141.3221  141.2935  165.7203 C.ar    1  UNL1        0.0891
      4 C         140.3035  142.3326  165.3557 C.ar    1  UNL1        0.0357
      5 C         139.9577  142.5709  163.9157 C.ar    1  UNL1        0.0831
      6 N         140.6304  141.7703  162.8403 N.ar    1  UNL1       -0.2164
      7 C         141.6680  141.0551  167.1603 C.ar    1  UNL1        0.0645
      8 C         140.8707  140.0770  167.9711 C.ar    1  UNL1        0.1040
      9 N         141.2165  139.8386  169.4111 N.ar    1  UNL1       -0.2294
     10 C         142.3597  140.5784  170.0403 C.ar    1  UNL1        0.1277
     11 N         142.7055  140.3400  171.4803 N.pl3   1  UNL1       -0.3426
     12 C         143.1570  141.5566  169.2295 C.ar    1  UNL1        0.0635
     13 C         142.8112  141.7950  167.7895 C.ar    1  UNL1        0.1458
     14 F         143.6085  142.7731  166.9786 F       1  UNL1       -0.2040
     15 H         142.1822  139.6980  172.0124 H       1  UNL1        0.1437
     16 H         143.4558  140.8256  171.8932 H       1  UNL1        0.1437
     17 C         140.7493  137.9260  162.6384 C.3     1  UNL1        0.0242
     18 C         141.8719  138.5280  161.8463 C.3     1  UNL1        0.1052
     19 C         142.5447  137.7274  160.7710 C.3     1  UNL1        0.1619
     20 O         143.6673  138.3294  159.9789 O.3     1  UNL1       -0.3502
     21 C         144.1171  139.7320  160.2622 C.3     1  UNL1        0.1637
     22 C         143.4443  140.5326  161.3375 C.3     1  UNL1        0.1256
     23 N         142.3217  139.9306  162.1296 N.pl3   1  UNL1       -0.2748
     24 C         138.9391  143.6099  163.5511 C.3     1  UNL1        0.1456
     25 C         137.6459  144.3696  163.5298 C.3     1  UNL1        0.0297
     26 C         137.7945  143.1664  164.4132 C.3     1  UNL1        0.0297
     27 S         139.7299  144.4143  162.5624 S.O2    1  UNL1       -0.0065
     28 C         140.5208  145.2188  161.5737 C.3     1  UNL1        0.1764
     29 O         140.5763  144.9529  163.6776 O.2     1  UNL1       -0.1727
     30 O         138.8836  143.8758  161.4472 O.2     1  UNL1       -0.1727
@<TRIPOS>BOND
     1    18    17    1
     2    18    19    1
     3    19    20    1
     4    20    21    1
     5    21    22    1
     6    22    23    1
     7    23     1    1
     8     1     2   ar
     9     2     3   ar
    10     3     7    1
    11     7     8   ar
    12     8     9   ar
    13     9    10   ar
    14    10    11    1
    15    10    12   ar
    16    12    13   ar
    17    13    14    1
    18     3     4   ar
    19     4     5   ar
    20     5    24    1
    21    24    27    1
    22    27    28    1
    23    27    29    2
    24    27    30    2
    25    24    25    1
    26    25    26    1
    27     5     6   ar
    28    23    18    1
    29     6     1   ar
    30    13     7   ar
    31    26    24    1
    32    11    15    1
    33    11    16    1
@<TRIPOS>MOLECULE
*****
 30 33 0 0 0
SMALL
GASTEIGER

@<TRIPOS>ATOM
      1 C         140.4704  140.9531  163.6672 C.ar    1  UNL1        0.2200
      2 N         140.3630  140.6609  165.1346 N.ar    1  UNL1       -0.2135
      3 C         141.0305  141.5631  166.1298 C.ar    1  UNL1        0.0891
      4 C         141.8055  142.7575  165.6576 C.ar    1  UNL1        0.0357
      5 C         141.9129  143.0497  164.1902 C.ar    1  UNL1        0.0831
      6 N         141.2453  142.1474  163.1950 N.ar    1  UNL1       -0.2164
      7 C         140.9232  141.2710  167.5971 C.ar    1  UNL1        0.0645
      8 C         141.3451  139.9332  168.1283 C.ar    1  UNL1        0.1040
      9 N         141.2378  139.6410  169.5957 N.ar    1  UNL1       -0.2294
     10 C         140.7085  140.6867  170.5318 C.ar    1  UNL1        0.1277
     11 N         140.6011  140.3945  171.9992 N.pl3   1  UNL1       -0.3426
     12 C         140.2865  142.0245  170.0006 C.ar    1  UNL1        0.0635
     13 C         140.3938  142.3167  168.5333 C.ar    1  UNL1        0.1458
     14 F         139.9719  143.6545  168.0020 F       1  UNL1       -0.2040
     15 H         140.8780  139.5165  172.3478 H       1  UNL1        0.1437
     16 H         140.2537  141.0808  172.6136 H       1  UNL1        0.1437
     17 C         137.5349  141.2377  163.1173 C.3     1  UNL1        0.0242
     18 C         138.3351  140.1931  162.3971 C.3     1  UNL1        0.1052
     19 C         137.6676  139.2909  161.4020 C.3     1  UNL1        0.1619
     20 O         138.4677  138.2463  160.6818 O.3     1  UNL1       -0.3502
     21 C         139.9354  138.1040  160.9568 C.3     1  UNL1        0.1637
     22 C         140.6029  139.0062  161.9519 C.3     1  UNL1        0.1256
     23 N         139.8028  140.0508  162.6721 N.pl3   1  UNL1       -0.2748
     24 C         142.6878  144.2440  163.7180 C.3     1  UNL1        0.1456
     25 C         143.8070  145.2329  163.5785 C.3     1  UNL1        0.0297
     26 C         143.9482  144.0672  164.5119 C.3     1  UNL1        0.0297
     27 S         141.6966  144.8356  162.7602 S.O2    1  UNL1       -0.0065
     28 C         140.7053  145.4272  161.8023 C.3     1  UNL1        0.1764
     29 O         140.7761  145.1445  163.9036 O.2     1  UNL1       -0.1727
     30 O         142.6170  144.5267  161.6168 O.2     1  UNL1       -0.1727
@<TRIPOS>BOND
     1    18    17    1
     2    18    19    1
     3    19    20    1
     4    20    21    1
     5    21    22    1
     6    22    23    1
     7    23     1    1
     8     1     2   ar
     9     2     3   ar
    10     3     7    1
    11     7     8   ar
    12     8     9   ar
    13     9    10   ar
    14    10    11    1
    15    10    12   ar
    16    12    13   ar
    17    13    14    1
    18     3     4   ar
    19     4     5   ar
    20     5    24    1
    21    24    27    1
    22    27    28    1
    23    27    29    2
    24    27    30    2
    25    24    25    1
    26    25    26    1
    27     5     6   ar
    28    23    18    1
    29     6     1   ar
    30    13     7   ar
    31    26    24    1
    32    11    15    1
    33    11    16    1
@<TRIPOS>MOLECULE
*****
 30 33 0 0 0
SMALL
GASTEIGER

@<TRIPOS>ATOM
      1 C         140.8070  142.2143  163.8045 C.ar    1  UNL1        0.2200
      2 N         141.0125  142.0971  165.2857 N.ar    1  UNL1       -0.2135
      3 C         141.7635  140.9270  165.8484 C.ar    1  UNL1        0.0891
      4 C         142.3091  139.8739  164.9299 C.ar    1  UNL1        0.0357
      5 C         142.1036  139.9911  163.4487 C.ar    1  UNL1        0.0831
      6 N         141.3525  141.1613  162.8860 N.ar    1  UNL1       -0.2164
      7 C         141.9690  140.8098  167.3297 C.ar    1  UNL1        0.0645
      8 C         141.1808  139.8071  168.1192 C.ar    1  UNL1        0.1040
      9 N         141.3863  139.6899  169.6004 N.ar    1  UNL1       -0.2294
     10 C         142.3800  140.5754  170.2921 C.ar    1  UNL1        0.1277
     11 N         142.5854  140.4582  171.7734 N.pl3   1  UNL1       -0.3426
     12 C         143.1682  141.5781  169.5026 C.ar    1  UNL1        0.0635
     13 C         142.9628  141.6953  168.0214 C.ar    1  UNL1        0.1458
     14 F         143.7510  142.6979  167.2318 F       1  UNL1       -0.2040
     15 H         142.0681  139.8001  172.2915 H       1  UNL1        0.1437
     16 H         143.2377  141.0394  172.2273 H       1  UNL1        0.1437
     17 C         137.8127  142.2950  163.9701 C.3     1  UNL1        0.0242
     18 C         138.5588  143.4249  163.3246 C.3     1  UNL1        0.1052
     19 C         137.8079  144.5950  162.7619 C.3     1  UNL1        0.1619
     20 O         138.5540  145.7248  162.1163 O.3     1  UNL1       -0.3502
     21 C         140.0512  145.6845  162.0335 C.3     1  UNL1        0.1637
     22 C         140.8021  144.5143  162.5962 C.3     1  UNL1        0.1256
     23 N         140.0560  143.3845  163.2417 N.pl3   1  UNL1       -0.2748
     24 C         142.6491  138.9382  162.5302 C.3     1  UNL1        0.1456
     25 C         143.6275  138.0101  161.8733 C.3     1  UNL1        0.0297
     26 C         144.0849  138.9322  162.9645 C.3     1  UNL1        0.0297
     27 S         141.4029  138.5784  161.7770 S.O2    1  UNL1       -0.0065
     28 C         140.1565  138.2187  161.0238 C.3     1  UNL1        0.1764
     29 O         140.8969  137.8273  162.9728 O.2     1  UNL1       -0.1727
     30 O         141.9087  139.3295  160.5812 O.2     1  UNL1       -0.1727
@<TRIPOS>BOND
     1    18    17    1
     2    18    19    1
     3    19    20    1
     4    20    21    1
     5    21    22    1
     6    22    23    1
     7    23     1    1
     8     1     2   ar
     9     2     3   ar
    10     3     7    1
    11     7     8   ar
    12     8     9   ar
    13     9    10   ar
    14    10    11    1
    15    10    12   ar
    16    12    13   ar
    17    13    14    1
    18     3     4   ar
    19     4     5   ar
    20     5    24    1
    21    24    27    1
    22    27    28    1
    23    27    29    2
    24    27    30    2
    25    24    25    1
    26    25    26    1
    27     5     6   ar
    28    23    18    1
    29     6     1   ar
    30    13     7   ar
    31    26    24    1
    32    11    15    1
    33    11    16    1
@<TRIPOS>MOLECULE
*****
 30 33 0 0 0
SMALL
GASTEIGER

@<TRIPOS>ATOM
      1 C         141.6431  140.6944  163.1995 C.ar    1  UNL1        0.2200
      2 N         141.9745  140.4651  164.6443 N.ar    1  UNL1       -0.2135
      3 C         141.2835  141.2652  165.7084 C.ar    1  UNL1        0.0891
      4 C         140.2610  142.2946  165.3277 C.ar    1  UNL1        0.0357
      5 C         139.9296  142.5239  163.8828 C.ar    1  UNL1        0.0831
      6 N         140.6207  141.7238  162.8187 N.ar    1  UNL1       -0.2164
      7 C         141.6149  141.0358  167.1533 C.ar    1  UNL1        0.0645
      8 C         142.8066  141.7103  167.7656 C.ar    1  UNL1        0.1040
      9 N         143.1380  141.4809  169.2104 N.ar    1  UNL1       -0.2294
     10 C         142.2777  140.5772  170.0430 C.ar    1  UNL1        0.1277
     11 N         142.6091  140.3479  171.4878 N.pl3   1  UNL1       -0.3426
     12 C         141.0859  139.9028  169.4306 C.ar    1  UNL1        0.0635
     13 C         140.7545  140.1321  167.9858 C.ar    1  UNL1        0.1458
     14 F         139.5629  139.4576  167.3735 F       1  UNL1       -0.2040
     15 H         143.3913  140.7906  171.8897 H       1  UNL1        0.1437
     16 H         142.0445  139.7548  172.0342 H       1  UNL1        0.1437
     17 C         140.8465  137.8436  162.7111 C.3     1  UNL1        0.0242
     18 C         141.9359  138.4689  161.8912 C.3     1  UNL1        0.1052
     19 C         142.6270  137.6689  160.8271 C.3     1  UNL1        0.1619
     20 O         143.7164  138.2942  160.0072 O.3     1  UNL1       -0.3502
     21 C         144.1147  139.7196  160.2514 C.3     1  UNL1        0.1637
     22 C         143.4236  140.5196  161.3154 C.3     1  UNL1        0.1256
     23 N         142.3342  139.8943  162.1353 N.pl3   1  UNL1       -0.2748
     24 C         138.9072  143.5532  163.5021 C.3     1  UNL1        0.1456
     25 C         137.6101  144.3058  163.4668 C.3     1  UNL1        0.0297
     26 C         137.7613  143.1136  164.3645 C.3     1  UNL1        0.0297
     27 S         139.6979  144.3504  162.5075 S.O2    1  UNL1       -0.0065
     28 C         140.4887  145.1475  161.5128 C.3     1  UNL1        0.1764
     29 O         138.8122  143.8522  161.4041 O.2     1  UNL1       -0.1727
     30 O         140.5836  144.8485  163.6108 O.2     1  UNL1       -0.1727
@<TRIPOS>BOND
     1    18    17    1
     2    18    19    1
     3    19    20    1
     4    20    21    1
     5    21    22    1
     6    22    23    1
     7    23     1    1
     8     1     2   ar
     9     2     3   ar
    10     3     7    1
    11     7     8   ar
    12     8     9   ar
    13     9    10   ar
    14    10    11    1
    15    10    12   ar
    16    12    13   ar
    17    13    14    1
    18     3     4   ar
    19     4     5   ar
    20     5    24    1
    21    24    27    1
    22    27    28    1
    23    27    29    2
    24    27    30    2
    25    24    25    1
    26    25    26    1
    27     5     6   ar
    28    23    18    1
    29     6     1   ar
    30    13     7   ar
    31    26    24    1
    32    11    15    1
    33    11    16    1
@<TRIPOS>MOLECULE
*****
 30 33 0 0 0
SMALL
GASTEIGER

@<TRIPOS>ATOM
      1 C         140.7466  140.4699  163.6759 C.ar    1  UNL1        0.2200
      2 N         140.4592  140.3598  165.1440 N.ar    1  UNL1       -0.2135
      3 C         141.5213  140.7075  166.1444 C.ar    1  UNL1        0.0891
      4 C         142.8711  141.1653  165.6767 C.ar    1  UNL1        0.0357
      5 C         143.1586  141.2753  164.2086 C.ar    1  UNL1        0.0831
      6 N         142.0963  140.9276  163.2082 N.ar    1  UNL1       -0.2164
      7 C         141.2338  140.5975  167.6124 C.ar    1  UNL1        0.0645
      8 C         140.1604  141.4424  168.2318 C.ar    1  UNL1        0.1040
      9 N         139.8729  141.3323  169.6999 N.ar    1  UNL1       -0.2294
     10 C         140.6589  140.3774  170.5486 C.ar    1  UNL1        0.1277
     11 N         140.3714  140.2674  172.0166 N.pl3   1  UNL1       -0.3426
     12 C         141.7324  139.5324  169.9292 C.ar    1  UNL1        0.0635
     13 C         142.0199  139.6425  168.4611 C.ar    1  UNL1        0.1458
     14 F         143.0934  138.7976  167.8417 F       1  UNL1       -0.2040
     15 H         139.6668  140.8219  172.4232 H       1  UNL1        0.1437
     16 H         140.8873  139.6406  172.5737 H       1  UNL1        0.1437
     17 C         140.1387  137.5949  163.0714 C.3     1  UNL1        0.0242
     18 C         139.3804  138.6847  162.3733 C.3     1  UNL1        0.1052
     19 C         138.3182  138.3371  161.3729 C.3     1  UNL1        0.1619
     20 O         137.5599  139.4268  160.6748 O.3     1  UNL1       -0.3502
     21 C         137.8639  140.8643  160.9770 C.3     1  UNL1        0.1637
     22 C         138.9261  141.2119  161.9774 C.3     1  UNL1        0.1256
     23 N         139.6844  140.1221  162.6755 N.pl3   1  UNL1       -0.2748
     24 C         144.5083  141.7330  163.7409 C.3     1  UNL1        0.1456
     25 C         145.9782  141.7130  163.4427 C.3     1  UNL1        0.0297
     26 C         145.3232  140.5164  164.0665 C.3     1  UNL1        0.0297
     27 S         144.1623  143.1085  163.2530 S.O2    1  UNL1       -0.0065
     28 C         143.8162  144.4841  162.7649 C.3     1  UNL1        0.1764
     29 O         144.2541  142.6286  161.8347 O.2     1  UNL1       -0.1727
     30 O         144.0703  143.5886  164.6711 O.2     1  UNL1       -0.1727
@<TRIPOS>BOND
     1    18    17    1
     2    18    19    1
     3    19    20    1
     4    20    21    1
     5    21    22    1
     6    22    23    1
     7    23     1    1
     8     1     2   ar
     9     2     3   ar
    10     3     7    1
    11     7     8   ar
    12     8     9   ar
    13     9    10   ar
    14    10    11    1
    15    10    12   ar
    16    12    13   ar
    17    13    14    1
    18     3     4   ar
    19     4     5   ar
    20     5    24    1
    21    24    27    1
    22    27    28    1
    23    27    29    2
    24    27    30    2
    25    24    25    1
    26    25    26    1
    27     5     6   ar
    28    23    18    1
    29     6     1   ar
    30    13     7   ar
    31    26    24    1
    32    11    15    1
    33    11    16    1
@<TRIPOS>MOLECULE
*****
 30 33 0 0 0
SMALL
GASTEIGER

@<TRIPOS>ATOM
      1 C         140.4500  140.9848  163.5812 C.ar    1  UNL1        0.2200
      2 N         140.3451  140.6733  165.0447 N.ar    1  UNL1       -0.2135
      3 C         141.0214  141.5576  166.0501 C.ar    1  UNL1        0.0891
      4 C         141.8025  142.7534  165.5918 C.ar    1  UNL1        0.0357
      5 C         141.9074  143.0649  164.1283 C.ar    1  UNL1        0.0831
      6 N         141.2311  142.1805  163.1229 N.ar    1  UNL1       -0.2164
      7 C         140.9165  141.2461  167.5136 C.ar    1  UNL1        0.0645
      8 C         140.1999  142.1910  168.4320 C.ar    1  UNL1        0.1040
      9 N         140.0951  141.8796  169.8956 N.ar    1  UNL1       -0.2294
     10 C         140.7068  140.6232  170.4407 C.ar    1  UNL1        0.1277
     11 N         140.6020  140.3117  171.9043 N.pl3   1  UNL1       -0.3426
     12 C         141.4235  139.6782  169.5223 C.ar    1  UNL1        0.0635
     13 C         141.5283  139.9896  168.0587 C.ar    1  UNL1        0.1458
     14 F         142.2449  139.0447  167.1403 F       1  UNL1       -0.2040
     15 H         140.1316  140.9319  172.5071 H       1  UNL1        0.1437
     16 H         141.0035  139.4871  172.2620 H       1  UNL1        0.1437
     17 C         141.9442  138.6895  162.3568 C.3     1  UNL1        0.0242
     18 C         140.5208  138.9528  161.9637 C.3     1  UNL1        0.1052
     19 C         139.8445  138.0686  160.9584 C.3     1  UNL1        0.1619
     20 O         138.4211  138.3319  160.5653 O.3     1  UNL1       -0.3502
     21 C         137.6739  139.4795  161.1775 C.3     1  UNL1        0.1637
     22 C         138.3503  140.3637  162.1827 C.3     1  UNL1        0.1256
     23 N         139.7737  140.1004  162.5759 N.pl3   1  UNL1       -0.2748
     24 C         142.6885  144.2606  163.6700 C.3     1  UNL1        0.1456
     25 C         143.8074  145.2527  163.5521 C.3     1  UNL1        0.0297
     26 C         143.9323  144.0893  164.4908 C.3     1  UNL1        0.0297
     27 S         141.7160  144.8472  162.6902 S.O2    1  UNL1       -0.0065
     28 C         140.7433  145.4338  161.7104 C.3     1  UNL1        0.1764
     29 O         140.7924  145.2003  163.8183 O.2     1  UNL1       -0.1727
     30 O         142.6394  144.4941  161.5621 O.2     1  UNL1       -0.1727
@<TRIPOS>BOND
     1    18    17    1
     2    18    19    1
     3    19    20    1
     4    20    21    1
     5    21    22    1
     6    22    23    1
     7    23     1    1
     8     1     2   ar
     9     2     3   ar
    10     3     7    1
    11     7     8   ar
    12     8     9   ar
    13     9    10   ar
    14    10    11    1
    15    10    12   ar
    16    12    13   ar
    17    13    14    1
    18     3     4   ar
    19     4     5   ar
    20     5    24    1
    21    24    27    1
    22    27    28    1
    23    27    29    2
    24    27    30    2
    25    24    25    1
    26    25    26    1
    27     5     6   ar
    28    23    18    1
    29     6     1   ar
    30    13     7   ar
    31    26    24    1
    32    11    15    1
    33    11    16    1
