@<TRIPOS>MOLECULE
*****
 30 33 0 0 0
SMALL
GASTEIGER

@<TRIPOS>ATOM
      1 C         142.6830  141.9428  168.1429 C.ar    1  UNL1        0.1036
      2 C         143.3335  142.4895  169.3790 C.ar    1  UNL1        0.1197
      3 N         142.4785  142.1200  170.5548 N.ar    1  UNL1       -0.2234
      4 C         141.2997  141.3448  170.0454 C.ar    1  UNL1        0.1640
      5 C         140.1275  140.7246  170.7463 C.ar    1  UNL1        0.0417
      6 C         139.0818  139.9948  169.9565 C.ar    1  UNL1        0.0393
      7 C         139.2082  139.8853  168.4659 C.ar    1  UNL1        0.1525
      8 N         140.3803  140.5056  167.7650 N.ar    1  UNL1       -0.1486
      9 N         141.4261  141.2353  168.5547 N.ar    1  UNL1       -0.2096
     10 C         144.2307  142.3528  163.9373 C.ar    1  UNL1        0.1807
     11 C         144.5349  143.4119  164.9551 C.ar    1  UNL1        0.0520
     12 C         144.0190  143.2752  166.3569 C.ar    1  UNL1        0.0060
     13 C         143.1989  142.0795  166.7411 C.ar    1  UNL1        0.0196
     14 C         142.8947  141.0204  165.7233 C.ar    1  UNL1        0.0060
     15 C         143.4106  141.1571  164.3214 C.ar    1  UNL1        0.0520
     16 C         143.9981  143.3241  161.5389 C.3     1  UNL1        0.3254
     17 S         144.7466  142.4896  162.5355 S.O     1  UNL1        0.0581
     18 O         146.0110  141.7917  162.1303 O.co2   1  UNL1       -0.6774
     19 N         138.1623  139.1555  167.6761 N.pl3   1  UNL1       -0.2966
     20 H         137.3627  138.8007  168.1278 H       1  UNL1        0.1537
     21 C         138.3347  138.9663  166.1981 C.ar    1  UNL1        0.0495
     22 C         138.1265  140.1219  165.2647 C.ar    1  UNL1        0.0160
     23 C         138.2989  139.9326  163.7867 C.ar    1  UNL1        0.0196
     24 C         138.6795  138.5878  163.2421 C.ar    1  UNL1        0.1058
     25 C         138.8878  137.4322  164.1755 C.ar    1  UNL1        0.0196
     26 C         138.7154  137.6214  165.6535 C.ar    1  UNL1        0.0160
     27 S         138.8520  138.3986  161.7642 S.O2    1  UNL1        0.0105
     28 C         139.0243  138.2094  160.2861 C.3     1  UNL1        0.1816
     29 O         137.6431  139.2507  161.5141 O.2     1  UNL1       -0.1686
     30 O         140.0608  137.5465  162.0143 O.2     1  UNL1       -0.1686
@<TRIPOS>UNITY_ATOM_ATTR
17 1
charge 1
18 1
charge -1
@<TRIPOS>BOND
     1    16    17    1
     2    17    18    2
     3    17    10    1
     4    10    11   ar
     5    11    12   ar
     6    12    13   ar
     7    13     1    1
     8     1     2   ar
     9     2     3   ar
    10     3     4   ar
    11     4     5   ar
    12     5     6   ar
    13     6     7   ar
    14     7    19    1
    15    19    21    1
    16    21    22   ar
    17    22    23   ar
    18    23    24   ar
    19    24    27    1
    20    27    28    1
    21    27    29    2
    22    27    30    2
    23    24    25   ar
    24    25    26   ar
    25     7     8   ar
    26     8     9   ar
    27    13    14   ar
    28    14    15   ar
    29    15    10   ar
    30     9     1   ar
    31     9     4   ar
    32    26    21   ar
    33    19    20    1
@<TRIPOS>MOLECULE
*****
 30 33 0 0 0
SMALL
GASTEIGER

@<TRIPOS>ATOM
      1 C         140.6104  142.8916  168.0095 C.ar    1  UNL1        0.1036
      2 C         140.2249  143.5804  169.2850 C.ar    1  UNL1        0.1197
      3 N         140.7488  142.7641  170.4292 N.ar    1  UNL1       -0.2234
      4 C         141.4580  141.5707  169.8608 C.ar    1  UNL1        0.1640
      5 C         142.1705  140.4225  170.5118 C.ar    1  UNL1        0.0417
      6 C         142.7976  139.3532  169.6673 C.ar    1  UNL1        0.0393
      7 C         142.7121  139.4321  168.1718 C.ar    1  UNL1        0.1525
      8 N         141.9995  140.5803  167.5208 N.ar    1  UNL1       -0.1486
      9 N         141.3724  141.6496  168.3653 N.ar    1  UNL1       -0.2096
     10 C         139.6493  144.3036  163.8462 C.ar    1  UNL1        0.1807
     11 C         140.8167  143.3907  164.0778 C.ar    1  UNL1        0.0520
     12 C         141.1371  142.9200  165.4655 C.ar    1  UNL1        0.0060
     13 C         140.2901  143.3623  166.6217 C.ar    1  UNL1        0.0196
     14 C         139.1225  144.2752  166.3901 C.ar    1  UNL1        0.0060
     15 C         138.8022  144.7459  165.0024 C.ar    1  UNL1        0.0520
     16 C         139.8931  146.0705  161.9571 C.3     1  UNL1        0.3254
     17 S         139.3290  144.7742  162.4584 S.O     1  UNL1        0.0581
     18 O         138.4445  143.9484  161.5720 O.co2   1  UNL1       -0.6774
     19 N         143.3392  138.3626  167.3273 N.pl3   1  UNL1       -0.2966
     20 H         143.7484  137.5753  167.7538 H       1  UNL1        0.1537
     21 C         143.3428  138.4928  165.8330 C.ar    1  UNL1        0.0495
     22 C         142.1968  137.9522  165.0302 C.ar    1  UNL1        0.0160
     23 C         142.2005  138.0824  163.5358 C.ar    1  UNL1        0.0196
     24 C         143.3502  138.7532  162.8443 C.ar    1  UNL1        0.1058
     25 C         144.4962  139.2938  163.6470 C.ar    1  UNL1        0.0196
     26 C         144.4925  139.1636  165.1413 C.ar    1  UNL1        0.0160
     27 S         143.3538  138.8834  161.3500 S.O2    1  UNL1        0.0105
     28 C         143.3574  139.0135  159.8556 C.3     1  UNL1        0.1816
     29 O         142.4241  137.7109  161.2456 O.2     1  UNL1       -0.1686
     30 O         144.2835  140.0558  161.4544 O.2     1  UNL1       -0.1686
@<TRIPOS>UNITY_ATOM_ATTR
17 1
charge 1
18 1
charge -1
@<TRIPOS>BOND
     1    16    17    1
     2    17    18    2
     3    17    10    1
     4    10    11   ar
     5    11    12   ar
     6    12    13   ar
     7    13     1    1
     8     1     2   ar
     9     2     3   ar
    10     3     4   ar
    11     4     5   ar
    12     5     6   ar
    13     6     7   ar
    14     7    19    1
    15    19    21    1
    16    21    22   ar
    17    22    23   ar
    18    23    24   ar
    19    24    27    1
    20    27    28    1
    21    27    29    2
    22    27    30    2
    23    24    25   ar
    24    25    26   ar
    25     7     8   ar
    26     8     9   ar
    27    13    14   ar
    28    14    15   ar
    29    15    10   ar
    30     9     1   ar
    31     9     4   ar
    32    26    21   ar
    33    19    20    1
@<TRIPOS>MOLECULE
*****
 30 33 0 0 0
SMALL
GASTEIGER

@<TRIPOS>ATOM
      1 C         139.8480  140.3106  167.4066 C.ar    1  UNL1        0.1036
      2 C         139.2158  139.8669  168.6924 C.ar    1  UNL1        0.1197
      3 N         140.0659  140.3658  169.8232 N.ar    1  UNL1       -0.2234
      4 C         141.2234  141.1178  169.2361 C.ar    1  UNL1        0.1640
      5 C         142.3826  141.8293  169.8686 C.ar    1  UNL1        0.0417
      6 C         143.4071  142.5066  169.0076 C.ar    1  UNL1        0.0393
      7 C         143.2724  142.4725  167.5140 C.ar    1  UNL1        0.1525
      8 N         142.1133  141.7611  166.8815 N.ar    1  UNL1       -0.1486
      9 N         141.0887  141.0838  167.7426 N.ar    1  UNL1       -0.2096
     10 C         138.2951  139.4700  163.2675 C.ar    1  UNL1        0.1807
     11 C         138.2281  140.8607  163.8256 C.ar    1  UNL1        0.0520
     12 C         138.7457  141.1408  165.2053 C.ar    1  UNL1        0.0060
     13 C         139.3304  140.0305  166.0269 C.ar    1  UNL1        0.0196
     14 C         139.3974  138.6397  165.4687 C.ar    1  UNL1        0.0060
     15 C         138.8797  138.3595  164.0890 C.ar    1  UNL1        0.0520
     16 C         137.7609  140.2796  160.8572 C.3     1  UNL1        0.3254
     17 S         137.7774  139.1898  161.8878 S.O     1  UNL1        0.0581
     18 O         137.2763  137.8198  161.5387 O.co2   1  UNL1       -0.6774
     19 N         144.2971  143.1500  166.6530 N.pl3   1  UNL1       -0.2966
     20 H         145.0547  143.6220  167.0683 H       1  UNL1        0.1537
     21 C         144.1674  143.1081  165.1592 C.ar    1  UNL1        0.0495
     22 C         143.5244  144.2504  164.4299 C.ar    1  UNL1        0.0160
     23 C         143.3948  144.2085  162.9361 C.ar    1  UNL1        0.0196
     24 C         143.9081  143.0244  162.1716 C.ar    1  UNL1        0.1058
     25 C         144.5511  141.8822  162.9009 C.ar    1  UNL1        0.0196
     26 C         144.6807  141.9240  164.3947 C.ar    1  UNL1        0.0160
     27 S         143.7784  142.9826  160.6778 S.O2    1  UNL1        0.0105
     28 C         143.6487  142.9408  159.1840 C.3     1  UNL1        0.1816
     29 O         142.8585  144.1664  160.7245 O.2     1  UNL1       -0.1686
     30 O         144.6983  141.7987  160.6311 O.2     1  UNL1       -0.1686
@<TRIPOS>UNITY_ATOM_ATTR
17 1
charge 1
18 1
charge -1
@<TRIPOS>BOND
     1    16    17    1
     2    17    18    2
     3    17    10    1
     4    10    11   ar
     5    11    12   ar
     6    12    13   ar
     7    13     1    1
     8     1     2   ar
     9     2     3   ar
    10     3     4   ar
    11     4     5   ar
    12     5     6   ar
    13     6     7   ar
    14     7    19    1
    15    19    21    1
    16    21    22   ar
    17    22    23   ar
    18    23    24   ar
    19    24    27    1
    20    27    28    1
    21    27    29    2
    22    27    30    2
    23    24    25   ar
    24    25    26   ar
    25     7     8   ar
    26     8     9   ar
    27    13    14   ar
    28    14    15   ar
    29    15    10   ar
    30     9     1   ar
    31     9     4   ar
    32    26    21   ar
    33    19    20    1
@<TRIPOS>MOLECULE
*****
 30 33 0 0 0
SMALL
GASTEIGER

@<TRIPOS>ATOM
      1 C         143.0385  139.0544  165.4728 C.ar    1  UNL1        0.1036
      2 C         143.6871  138.1133  166.4442 C.ar    1  UNL1        0.1197
      3 N         143.3488  138.5733  167.8313 N.ar    1  UNL1       -0.2234
      4 C         142.4912  139.7986  167.7171 C.ar    1  UNL1        0.1640
      5 C         141.8601  140.6820  168.7522 C.ar    1  UNL1        0.0417
      6 C         141.0372  141.8628  168.3295 C.ar    1  UNL1        0.0393
      7 C         140.8455  142.1601  166.8718 C.ar    1  UNL1        0.1525
      8 N         141.4765  141.2767  165.8368 N.ar    1  UNL1       -0.1486
      9 N         142.2994  140.0960  166.2595 N.ar    1  UNL1       -0.2096
     10 C         143.2696  138.7981  160.9860 C.ar    1  UNL1        0.1807
     11 C         142.2300  138.0131  161.7295 C.ar    1  UNL1        0.0520
     12 C         142.1530  138.0985  163.2251 C.ar    1  UNL1        0.0060
     13 C         143.1155  138.9690  163.9772 C.ar    1  UNL1        0.0196
     14 C         144.1552  139.7541  163.2336 C.ar    1  UNL1        0.0060
     15 C         144.2322  139.6686  161.7380 C.ar    1  UNL1        0.0520
     16 C         142.6463  137.6017  158.7656 C.3     1  UNL1        0.3254
     17 S         143.3466  138.7127  159.4904 S.O     1  UNL1        0.0581
     18 O         144.1239  139.7382  158.7197 O.co2   1  UNL1       -0.6774
     19 N         140.0225  143.3410  166.4492 N.pl3   1  UNL1       -0.2966
     20 H         139.4421  143.7954  167.1018 H       1  UNL1        0.1537
     21 C         140.0840  143.8294  165.0323 C.ar    1  UNL1        0.0495
     22 C         141.4069  144.1711  164.4135 C.ar    1  UNL1        0.0160
     23 C         141.4683  144.6596  162.9965 C.ar    1  UNL1        0.0196
     24 C         140.2067  144.8063  162.1985 C.ar    1  UNL1        0.1058
     25 C         138.8838  144.4645  162.8173 C.ar    1  UNL1        0.0196
     26 C         138.8224  143.9761  164.2342 C.ar    1  UNL1        0.0160
     27 S         140.2682  145.2947  160.7816 S.O2    1  UNL1        0.0105
     28 C         140.3295  145.7832  159.3646 C.3     1  UNL1        0.1816
     29 O         139.2509  146.3497  161.1011 O.2     1  UNL1       -0.1686
     30 O         141.2854  144.2397  160.4620 O.2     1  UNL1       -0.1686
@<TRIPOS>UNITY_ATOM_ATTR
17 1
charge 1
18 1
charge -1
@<TRIPOS>BOND
     1    16    17    1
     2    17    18    2
     3    17    10    1
     4    10    11   ar
     5    11    12   ar
     6    12    13   ar
     7    13     1    1
     8     1     2   ar
     9     2     3   ar
    10     3     4   ar
    11     4     5   ar
    12     5     6   ar
    13     6     7   ar
    14     7    19    1
    15    19    21    1
    16    21    22   ar
    17    22    23   ar
    18    23    24   ar
    19    24    27    1
    20    27    28    1
    21    27    29    2
    22    27    30    2
    23    24    25   ar
    24    25    26   ar
    25     7     8   ar
    26     8     9   ar
    27    13    14   ar
    28    14    15   ar
    29    15    10   ar
    30     9     1   ar
    31     9     4   ar
    32    26    21   ar
    33    19    20    1
@<TRIPOS>MOLECULE
*****
 30 33 0 0 0
SMALL
GASTEIGER

@<TRIPOS>ATOM
      1 C         140.6968  142.8379  166.5043 C.ar    1  UNL1        0.1036
      2 C         140.1245  143.2752  167.8201 C.ar    1  UNL1        0.1197
      3 N         140.5247  142.2681  168.8572 N.ar    1  UNL1       -0.2234
      4 C         141.3444  141.2085  168.1825 C.ar    1  UNL1        0.1640
      5 C         142.0076  139.9685  168.7044 C.ar    1  UNL1        0.0417
      6 C         142.7773  139.0806  167.7721 C.ar    1  UNL1        0.0393
      7 C         142.8837  139.4327  166.3179 C.ar    1  UNL1        0.1525
      8 N         142.2205  140.6727  165.7960 N.ar    1  UNL1       -0.1486
      9 N         141.4508  141.5606  166.7283 N.ar    1  UNL1       -0.2096
     10 C         140.2337  144.9815  162.5748 C.ar    1  UNL1        0.1807
     11 C         139.0191  144.5330  163.3323 C.ar    1  UNL1        0.0520
     12 C         139.1735  143.8185  164.6421 C.ar    1  UNL1        0.0060
     13 C         140.5424  143.5524  165.1945 C.ar    1  UNL1        0.0196
     14 C         141.7571  144.0009  164.4370 C.ar    1  UNL1        0.0060
     15 C         141.6026  144.7154  163.1272 C.ar    1  UNL1        0.0520
     16 C         140.7838  145.1841  160.0438 C.3     1  UNL1        0.3254
     17 S         140.0792  145.6960  161.2650 S.O     1  UNL1        0.0581
     18 O         139.2202  146.9224  161.1765 O.co2   1  UNL1       -0.6774
     19 N         143.6534  138.5447  165.3856 N.pl3   1  UNL1       -0.2966
     20 H         144.3103  137.9054  165.7448 H       1  UNL1        0.1537
     21 C         143.4224  138.6309  163.9061 C.ar    1  UNL1        0.0495
     22 C         144.3315  139.4644  163.0523 C.ar    1  UNL1        0.0160
     23 C         144.1004  139.5506  161.5727 C.ar    1  UNL1        0.0196
     24 C         142.9603  138.8033  160.9469 C.ar    1  UNL1        0.1058
     25 C         142.0512  137.9698  161.8006 C.ar    1  UNL1        0.0196
     26 C         142.2822  137.8836  163.2802 C.ar    1  UNL1        0.0160
     27 S         142.7292  138.8895  159.4673 S.O2    1  UNL1        0.0105
     28 C         142.4982  138.9757  157.9877 C.3     1  UNL1        0.1816
     29 O         144.1377  139.3682  159.2753 O.2     1  UNL1       -0.1686
     30 O         141.3207  138.4108  159.6594 O.2     1  UNL1       -0.1686
@<TRIPOS>UNITY_ATOM_ATTR
17 1
charge 1
18 1
charge -1
@<TRIPOS>BOND
     1    16    17    1
     2    17    18    2
     3    17    10    1
     4    10    11   ar
     5    11    12   ar
     6    12    13   ar
     7    13     1    1
     8     1     2   ar
     9     2     3   ar
    10     3     4   ar
    11     4     5   ar
    12     5     6   ar
    13     6     7   ar
    14     7    19    1
    15    19    21    1
    16    21    22   ar
    17    22    23   ar
    18    23    24   ar
    19    24    27    1
    20    27    28    1
    21    27    29    2
    22    27    30    2
    23    24    25   ar
    24    25    26   ar
    25     7     8   ar
    26     8     9   ar
    27    13    14   ar
    28    14    15   ar
    29    15    10   ar
    30     9     1   ar
    31     9     4   ar
    32    26    21   ar
    33    19    20    1
@<TRIPOS>MOLECULE
*****
 30 33 0 0 0
SMALL
GASTEIGER

@<TRIPOS>ATOM
      1 C         139.4453  138.9664  165.6313 C.ar    1  UNL1        0.1036
      2 C         139.4077  137.4822  165.4172 C.ar    1  UNL1        0.1197
      3 N         138.8434  137.2251  164.0513 N.ar    1  UNL1       -0.2234
      4 C         138.5323  138.5504  163.4213 C.ar    1  UNL1        0.1640
      5 C         137.9584  138.9162  162.0847 C.ar    1  UNL1        0.0417
      6 C         137.7564  140.3582  161.7245 C.ar    1  UNL1        0.0393
      7 C         138.1284  141.4344  162.7010 C.ar    1  UNL1        0.1525
      8 N         138.7023  141.0686  164.0376 N.ar    1  UNL1       -0.1486
      9 N         138.9043  139.6265  164.3978 N.ar    1  UNL1       -0.2096
     10 C         140.9218  141.0692  169.3256 C.ar    1  UNL1        0.1807
     11 C         141.8304  140.9024  168.1439 C.ar    1  UNL1        0.0520
     12 C         141.3382  140.2015  166.9124 C.ar    1  UNL1        0.0060
     13 C         139.9375  139.6673  166.8627 C.ar    1  UNL1        0.0196
     14 C         139.0288  139.8341  168.0446 C.ar    1  UNL1        0.0060
     15 C         139.5210  140.5351  169.2760 C.ar    1  UNL1        0.0520
     16 C         142.5514  142.7435  170.4620 C.3     1  UNL1        0.3254
     17 S         141.4140  141.7702  170.5571 S.O     1  UNL1        0.0581
     18 O         140.7688  141.4978  171.8835 O.co2   1  UNL1       -0.6774
     19 N         137.9264  142.8765  162.3407 N.pl3   1  UNL1       -0.2966
     20 H         137.2257  143.4025  162.7897 H       1  UNL1        0.1537
     21 C         138.7920  143.5170  161.2966 C.ar    1  UNL1        0.0495
     22 C         138.8776  142.9194  159.9235 C.ar    1  UNL1        0.0160
     23 C         139.7433  143.5600  158.8793 C.ar    1  UNL1        0.0196
     24 C         140.5234  144.7982  159.2083 C.ar    1  UNL1        0.1058
     25 C         140.4378  145.3959  160.5814 C.ar    1  UNL1        0.0196
     26 C         139.5721  144.7554  161.6255 C.ar    1  UNL1        0.0160
     27 S         141.3890  145.4388  158.1641 S.O2    1  UNL1        0.0105
     28 C         142.2547  146.0794  157.1199 C.3     1  UNL1        0.1816
     29 O         142.5599  144.6304  158.6389 O.2     1  UNL1       -0.1686
     30 O         140.2181  146.2472  157.6893 O.2     1  UNL1       -0.1686
@<TRIPOS>UNITY_ATOM_ATTR
17 1
charge 1
18 1
charge -1
@<TRIPOS>BOND
     1    16    17    1
     2    17    18    2
     3    17    10    1
     4    10    11   ar
     5    11    12   ar
     6    12    13   ar
     7    13     1    1
     8     1     2   ar
     9     2     3   ar
    10     3     4   ar
    11     4     5   ar
    12     5     6   ar
    13     6     7   ar
    14     7    19    1
    15    19    21    1
    16    21    22   ar
    17    22    23   ar
    18    23    24   ar
    19    24    27    1
    20    27    28    1
    21    27    29    2
    22    27    30    2
    23    24    25   ar
    24    25    26   ar
    25     7     8   ar
    26     8     9   ar
    27    13    14   ar
    28    14    15   ar
    29    15    10   ar
    30     9     1   ar
    31     9     4   ar
    32    26    21   ar
    33    19    20    1
@<TRIPOS>MOLECULE
*****
 30 33 0 0 0
SMALL
GASTEIGER

@<TRIPOS>ATOM
      1 C         139.8089  143.3626  164.8476 C.ar    1  UNL1        0.1036
      2 C         139.1665  144.7006  164.6306 C.ar    1  UNL1        0.1197
      3 N         138.3752  144.6339  163.3581 N.ar    1  UNL1       -0.2234
      4 C         138.5285  143.2546  162.7886 C.ar    1  UNL1        0.1640
      5 C         137.9757  142.6127  161.5508 C.ar    1  UNL1        0.0417
      6 C         138.3090  141.1851  161.2335 C.ar    1  UNL1        0.0393
      7 C         139.1951  140.3994  162.1541 C.ar    1  UNL1        0.1525
      8 N         139.7479  141.0413  163.3920 N.ar    1  UNL1       -0.1486
      9 N         139.4146  142.4689  163.7092 N.ar    1  UNL1       -0.2096
     10 C         142.4547  142.2284  168.3065 C.ar    1  UNL1        0.1807
     11 C         141.0280  142.6218  168.5510 C.ar    1  UNL1        0.0520
     12 C         140.1461  142.9999  167.3980 C.ar    1  UNL1        0.0060
     13 C         140.6908  142.9845  166.0006 C.ar    1  UNL1        0.0196
     14 C         142.1176  142.5911  165.7560 C.ar    1  UNL1        0.0060
     15 C         142.9995  142.2131  166.9090 C.ar    1  UNL1        0.0520
     16 C         143.0553  140.6012  170.2408 C.3     1  UNL1        0.3254
     17 S         143.3366  141.8504  169.4595 S.O     1  UNL1        0.0581
     18 O         144.4997  142.7216  169.8310 O.co2   1  UNL1       -0.6774
     19 N         139.5284  138.9717  161.8368 N.pl3   1  UNL1       -0.2966
     20 H         139.2150  138.2498  162.4284 H       1  UNL1        0.1537
     21 C         140.3391  138.6438  160.6182 C.ar    1  UNL1        0.0495
     22 C         139.6704  138.5324  159.2801 C.ar    1  UNL1        0.0160
     23 C         140.4813  138.2045  158.0614 C.ar    1  UNL1        0.0196
     24 C         141.9607  137.9880  158.1808 C.ar    1  UNL1        0.1058
     25 C         142.6294  138.0994  159.5189 C.ar    1  UNL1        0.0196
     26 C         141.8187  138.4273  160.7375 C.ar    1  UNL1        0.0160
     27 S         142.7714  137.6602  156.9622 S.O2    1  UNL1        0.0105
     28 C         143.5823  137.3323  155.7435 C.3     1  UNL1        0.1816
     29 O         143.7419  138.7481  157.3151 O.2     1  UNL1       -0.1686
     30 O         141.8010  136.5722  156.6093 O.2     1  UNL1       -0.1686
@<TRIPOS>UNITY_ATOM_ATTR
17 1
charge 1
18 1
charge -1
@<TRIPOS>BOND
     1    16    17    1
     2    17    18    2
     3    17    10    1
     4    10    11   ar
     5    11    12   ar
     6    12    13   ar
     7    13     1    1
     8     1     2   ar
     9     2     3   ar
    10     3     4   ar
    11     4     5   ar
    12     5     6   ar
    13     6     7   ar
    14     7    19    1
    15    19    21    1
    16    21    22   ar
    17    22    23   ar
    18    23    24   ar
    19    24    27    1
    20    27    28    1
    21    27    29    2
    22    27    30    2
    23    24    25   ar
    24    25    26   ar
    25     7     8   ar
    26     8     9   ar
    27    13    14   ar
    28    14    15   ar
    29    15    10   ar
    30     9     1   ar
    31     9     4   ar
    32    26    21   ar
    33    19    20    1
@<TRIPOS>MOLECULE
*****
 30 33 0 0 0
SMALL
GASTEIGER

@<TRIPOS>ATOM
      1 C         138.9368  140.4369  160.8758 C.ar    1  UNL1        0.1036
      2 C         137.6354  139.7506  160.5833 C.ar    1  UNL1        0.1197
      3 N         137.5183  138.5692  161.5000 N.ar    1  UNL1       -0.2234
      4 C         138.7472  138.5252  162.3590 C.ar    1  UNL1        0.1640
      5 C         139.1811  137.5832  163.4426 C.ar    1  UNL1        0.0417
      6 C         140.4918  137.7955  164.1404 C.ar    1  UNL1        0.0393
      7 C         141.3685  138.9499  163.7546 C.ar    1  UNL1        0.1525
      8 N         140.9346  139.8919  162.6710 N.ar    1  UNL1       -0.1486
      9 N         139.6239  139.6795  161.9732 N.ar    1  UNL1       -0.2096
     10 C         140.5045  144.1209  158.8214 C.ar    1  UNL1        0.1807
     11 C         139.8813  144.2284  160.1815 C.ar    1  UNL1        0.0520
     12 C         139.3587  143.0004  160.8663 C.ar    1  UNL1        0.0060
     13 C         139.4594  141.6649  160.1910 C.ar    1  UNL1        0.0196
     14 C         140.0827  141.5573  158.8308 C.ar    1  UNL1        0.0060
     15 C         140.6052  142.7854  158.1460 C.ar    1  UNL1        0.0520
     16 C         140.1048  146.1986  157.3136 C.3     1  UNL1        0.3254
     17 S         141.0271  145.3489  158.1366 S.O     1  UNL1        0.0581
     18 O         142.4720  145.7272  158.2750 O.co2   1  UNL1       -0.6774
     19 N         142.6793  139.1622  164.4525 N.pl3   1  UNL1       -0.2966
     20 H         143.5034  138.7717  164.0815 H       1  UNL1        0.1537
     21 C         142.7344  139.9694  165.7155 C.ar    1  UNL1        0.0495
     22 C         143.0170  141.4412  165.6533 C.ar    1  UNL1        0.0160
     23 C         143.0721  142.2484  166.9165 C.ar    1  UNL1        0.0196
     24 C         142.8445  141.5838  168.2417 C.ar    1  UNL1        0.1058
     25 C         142.5619  140.1120  168.3040 C.ar    1  UNL1        0.0196
     26 C         142.5068  139.3048  167.0409 C.ar    1  UNL1        0.0160
     27 S         142.8996  142.3910  169.5048 S.O2    1  UNL1        0.0105
     28 C         142.9548  143.1982  170.7679 C.3     1  UNL1        0.1816
     29 O         144.2796  142.8572  169.1467 O.2     1  UNL1       -0.1686
     30 O         141.5197  141.9248  169.8629 O.2     1  UNL1       -0.1686
@<TRIPOS>UNITY_ATOM_ATTR
17 1
charge 1
18 1
charge -1
@<TRIPOS>BOND
     1    16    17    1
     2    17    18    2
     3    17    10    1
     4    10    11   ar
     5    11    12   ar
     6    12    13   ar
     7    13     1    1
     8     1     2   ar
     9     2     3   ar
    10     3     4   ar
    11     4     5   ar
    12     5     6   ar
    13     6     7   ar
    14     7    19    1
    15    19    21    1
    16    21    22   ar
    17    22    23   ar
    18    23    24   ar
    19    24    27    1
    20    27    28    1
    21    27    29    2
    22    27    30    2
    23    24    25   ar
    24    25    26   ar
    25     7     8   ar
    26     8     9   ar
    27    13    14   ar
    28    14    15   ar
    29    15    10   ar
    30     9     1   ar
    31     9     4   ar
    32    26    21   ar
    33    19    20    1
@<TRIPOS>MOLECULE
*****
 30 33 0 0 0
SMALL
GASTEIGER

@<TRIPOS>ATOM
      1 C         139.1513  139.7404  167.3826 C.ar    1  UNL1        0.1036
      2 C         138.2930  139.2547  168.5128 C.ar    1  UNL1        0.1197
      3 N         138.8784  139.7701  169.7940 N.ar    1  UNL1       -0.2234
      4 C         140.0985  140.5744  169.4556 C.ar    1  UNL1        0.1640
      5 C         141.0777  141.3212  170.3121 C.ar    1  UNL1        0.0417
      6 C         142.2255  142.0495  169.6781 C.ar    1  UNL1        0.0393
      7 C         142.3942  142.0311  168.1877 C.ar    1  UNL1        0.1525
      8 N         141.4150  141.2844  167.3313 N.ar    1  UNL1       -0.1486
      9 N         140.2671  140.5561  167.9652 N.ar    1  UNL1       -0.2096
     10 C         138.4939  138.8985  163.0111 C.ar    1  UNL1        0.1807
     11 C         139.0508  137.8306  163.9051 C.ar    1  UNL1        0.0520
     12 C         139.2699  138.1112  165.3623 C.ar    1  UNL1        0.0060
     13 C         138.9322  139.4598  165.9254 C.ar    1  UNL1        0.0196
     14 C         138.3753  140.5278  165.0313 C.ar    1  UNL1        0.0060
     15 C         138.1562  140.2472  163.5742 C.ar    1  UNL1        0.0520
     16 C         139.4401  138.2809  160.6716 C.3     1  UNL1        0.3254
     17 S         138.2749  138.6179  161.5539 S.O     1  UNL1        0.0581
     18 O         136.8905  138.6743  160.9793 O.co2   1  UNL1       -0.6774
     19 N         143.5421  142.7595  167.5538 N.pl3   1  UNL1       -0.2966
     20 H         144.1679  143.2740  168.1133 H       1  UNL1        0.1537
     21 C         143.7365  142.7041  166.0675 C.ar    1  UNL1        0.0495
     22 C         143.5702  141.4044  165.3373 C.ar    1  UNL1        0.0160
     23 C         143.7646  141.3490  163.8509 C.ar    1  UNL1        0.0196
     24 C         144.1255  142.5932  163.0949 C.ar    1  UNL1        0.1058
     25 C         144.2919  143.8929  163.8251 C.ar    1  UNL1        0.0196
     26 C         144.0974  143.9483  165.3114 C.ar    1  UNL1        0.0160
     27 S         144.3199  142.5378  161.6086 S.O2    1  UNL1        0.0105
     28 C         144.5144  142.4823  160.1222 C.3     1  UNL1        0.1816
     29 O         145.1912  141.3272  161.7678 O.2     1  UNL1       -0.1686
     30 O         143.4487  143.7484  161.4495 O.2     1  UNL1       -0.1686
@<TRIPOS>UNITY_ATOM_ATTR
17 1
charge 1
18 1
charge -1
@<TRIPOS>BOND
     1    16    17    1
     2    17    18    2
     3    17    10    1
     4    10    11   ar
     5    11    12   ar
     6    12    13   ar
     7    13     1    1
     8     1     2   ar
     9     2     3   ar
    10     3     4   ar
    11     4     5   ar
    12     5     6   ar
    13     6     7   ar
    14     7    19    1
    15    19    21    1
    16    21    22   ar
    17    22    23   ar
    18    23    24   ar
    19    24    27    1
    20    27    28    1
    21    27    29    2
    22    27    30    2
    23    24    25   ar
    24    25    26   ar
    25     7     8   ar
    26     8     9   ar
    27    13    14   ar
    28    14    15   ar
    29    15    10   ar
    30     9     1   ar
    31     9     4   ar
    32    26    21   ar
    33    19    20    1
