@<TRIPOS>MOLECULE
*****
 23 25 0 0 0
SMALL
GASTEIGER

@<TRIPOS>ATOM
      1 C         143.6728  143.1178  164.7119 C.3     1  UNL1        0.0064
      2 C         142.9159  143.9751  163.7413 C.3     1  UNL1        0.0261
      3 C         141.4373  144.1678  163.9055 C.ar    1  UNL1       -0.0258
      4 C         140.6803  145.0251  162.9350 C.ar    1  UNL1       -0.0046
      5 C         139.2019  145.2177  163.0992 C.ar    1  UNL1       -0.0003
      6 C         138.4804  144.5529  164.2339 C.ar    1  UNL1       -0.0003
      7 C         139.2373  143.6956  165.2044 C.ar    1  UNL1       -0.0043
      8 C         140.7158  143.5030  165.0402 C.ar    1  UNL1       -0.0224
      9 C         141.4729  142.6457  166.0108 C.3     1  UNL1        0.0443
     10 C         142.9513  142.4531  165.8466 C.3     1  UNL1        0.0091
     11 C         140.7514  141.9810  167.1455 C.ar    1  UNL1       -0.0175
     12 C         140.1945  140.5988  166.9732 C.ar    1  UNL1       -0.0030
     13 C         139.4730  139.9341  168.1079 C.ar    1  UNL1        0.0119
     14 C         139.3084  140.6515  169.4149 C.ar    1  UNL1        0.0682
     15 CL        138.5869  139.9868  170.5496 Cl      1  UNL1       -0.0814
     16 C         139.8652  142.0336  169.5872 C.ar    1  UNL1        0.0679
     17 CL        139.7005  142.7511  170.8942 Cl      1  UNL1       -0.0814
     18 C         140.5867  142.6983  168.4525 C.ar    1  UNL1        0.0083
     19 C         145.1514  142.9252  164.5477 C.3     1  UNL1        0.0172
     20 N         145.8169  141.9649  162.2273 N.3     1  UNL1       -0.3211
     21 C         145.6720  141.7948  163.7105 C.3     1  UNL1        0.0651
     22 H         146.1816  141.1036  161.8203 H       1  UNL1        0.1189
     23 H         146.4614  142.7316  162.0343 H       1  UNL1        0.1189
@<TRIPOS>BOND
     1    20    21    1
     2    21    19    1
     3     1    19    1
     4     1     2    1
     5     2     3    1
     6     3     4   ar
     7     4     5   ar
     8     5     6   ar
     9     6     7   ar
    10     7     8   ar
    11     8     9    1
    12     9    11    1
    13    11    12   ar
    14    12    13   ar
    15    13    14   ar
    16    14    15    1
    17    14    16   ar
    18    16    17    1
    19    16    18   ar
    20     9    10    1
    21    10     1    1
    22     8     3   ar
    23    18    11   ar
    24    20    22    1
    25    20    23    1
@<TRIPOS>MOLECULE
*****
 23 25 0 0 0
SMALL
GASTEIGER

@<TRIPOS>ATOM
      1 C         140.2588  141.4530  169.1769 C.3     1  UNL1        0.0064
      2 C         139.3463  140.3242  168.7985 C.3     1  UNL1        0.0261
      3 C         139.2814  139.8573  167.3744 C.ar    1  UNL1       -0.0258
      4 C         138.3688  138.7286  166.9961 C.ar    1  UNL1       -0.0046
      5 C         138.3040  138.2618  165.5721 C.ar    1  UNL1       -0.0003
      6 C         139.1516  138.9237  164.5265 C.ar    1  UNL1       -0.0003
      7 C         140.0642  140.0524  164.9048 C.ar    1  UNL1       -0.0043
      8 C         140.1291  140.5192  166.3288 C.ar    1  UNL1       -0.0224
      9 C         141.0416  141.6480  166.7072 C.3     1  UNL1        0.0443
     10 C         141.1065  142.1149  168.1312 C.3     1  UNL1        0.0091
     11 C         141.8893  142.3099  165.6616 C.ar    1  UNL1       -0.0175
     12 C         141.3479  143.4715  164.8820 C.ar    1  UNL1       -0.0030
     13 C         142.1956  144.1334  163.8364 C.ar    1  UNL1        0.0119
     14 C         143.5847  143.6337  163.5703 C.ar    1  UNL1        0.0682
     15 CL        144.4323  144.2955  162.5247 Cl      1  UNL1       -0.0814
     16 C         144.1260  142.4721  164.3498 C.ar    1  UNL1        0.0679
     17 CL        145.5151  141.9724  164.0837 Cl      1  UNL1       -0.0814
     18 C         143.2784  141.8102  165.3955 C.ar    1  UNL1        0.0083
     19 C         140.3238  141.9199  170.6009 C.3     1  UNL1        0.0172
     20 N         142.2143  140.6895  171.8900 N.3     1  UNL1       -0.3211
     21 C         141.6396  141.9525  171.3203 C.3     1  UNL1        0.0651
     22 H         143.1059  140.8948  172.3408 H       1  UNL1        0.1189
     23 H         142.3601  140.0138  171.1400 H       1  UNL1        0.1189
@<TRIPOS>BOND
     1    20    21    1
     2    21    19    1
     3     1    19    1
     4     1     2    1
     5     2     3    1
     6     3     4   ar
     7     4     5   ar
     8     5     6   ar
     9     6     7   ar
    10     7     8   ar
    11     8     9    1
    12     9    11    1
    13    11    12   ar
    14    12    13   ar
    15    13    14   ar
    16    14    15    1
    17    14    16   ar
    18    16    17    1
    19    16    18   ar
    20     9    10    1
    21    10     1    1
    22     8     3   ar
    23    18    11   ar
    24    20    22    1
    25    20    23    1
@<TRIPOS>MOLECULE
*****
 23 25 0 0 0
SMALL
GASTEIGER

@<TRIPOS>ATOM
      1 C         138.9896  139.7535  166.6848 C.3     1  UNL1        0.0064
      2 C         139.0344  139.8434  168.1814 C.3     1  UNL1        0.0261
      3 C         139.9284  140.8479  168.8461 C.ar    1  UNL1       -0.0258
      4 C         139.9732  140.9377  170.3427 C.ar    1  UNL1       -0.0046
      5 C         140.8672  141.9422  171.0073 C.ar    1  UNL1       -0.0003
      6 C         141.7165  142.8568  170.1752 C.ar    1  UNL1       -0.0003
      7 C         141.6717  142.7670  168.6786 C.ar    1  UNL1       -0.0043
      8 C         140.7776  141.7625  168.0140 C.ar    1  UNL1       -0.0224
      9 C         140.7328  141.6726  166.5174 C.3     1  UNL1        0.0443
     10 C         139.8388  140.6681  165.8528 C.3     1  UNL1        0.0091
     11 C         141.5820  142.5873  165.6853 C.ar    1  UNL1       -0.0175
     12 C         143.0762  142.4580  165.7161 C.ar    1  UNL1       -0.0030
     13 C         143.9254  143.3726  164.8841 C.ar    1  UNL1        0.0119
     14 C         143.2804  144.4165  164.0213 C.ar    1  UNL1        0.0682
     15 CL        144.1297  145.3311  163.1892 Cl      1  UNL1       -0.0814
     16 C         141.7864  144.5457  163.9905 C.ar    1  UNL1        0.0679
     17 CL        141.1414  145.5896  163.1276 Cl      1  UNL1       -0.0814
     18 C         140.9372  143.6311  164.8225 C.ar    1  UNL1        0.0083
     19 C         138.0955  138.7490  166.0202 C.3     1  UNL1        0.0172
     20 N         136.5630  137.4766  167.6881 N.3     1  UNL1       -0.3211
     21 C         137.7234  137.4854  166.7377 C.3     1  UNL1        0.0651
     22 H         136.4541  136.5424  168.0830 H       1  UNL1        0.1189
     23 H         135.7124  137.7359  167.1886 H       1  UNL1        0.1189
@<TRIPOS>BOND
     1    20    21    1
     2    21    19    1
     3     1    19    1
     4     1     2    1
     5     2     3    1
     6     3     4   ar
     7     4     5   ar
     8     5     6   ar
     9     6     7   ar
    10     7     8   ar
    11     8     9    1
    12     9    11    1
    13    11    12   ar
    14    12    13   ar
    15    13    14   ar
    16    14    15    1
    17    14    16   ar
    18    16    17    1
    19    16    18   ar
    20     9    10    1
    21    10     1    1
    22     8     3   ar
    23    18    11   ar
    24    20    22    1
    25    20    23    1
@<TRIPOS>MOLECULE
*****
 23 25 0 0 0
SMALL
GASTEIGER

@<TRIPOS>ATOM
      1 C         140.1405  141.4052  169.2312 C.3     1  UNL1        0.0064
      2 C         139.2968  140.2501  168.7798 C.3     1  UNL1        0.0261
      3 C         139.2638  139.8668  167.3299 C.ar    1  UNL1       -0.0258
      4 C         138.4201  138.7117  166.8785 C.ar    1  UNL1       -0.0046
      5 C         138.3871  138.3285  165.4287 C.ar    1  UNL1       -0.0003
      6 C         139.1979  139.1004  164.4303 C.ar    1  UNL1       -0.0003
      7 C         140.0416  140.2555  164.8817 C.ar    1  UNL1       -0.0043
      8 C         140.0745  140.6388  166.3315 C.ar    1  UNL1       -0.0224
      9 C         140.9183  141.7939  166.7829 C.3     1  UNL1        0.0443
     10 C         140.9512  142.1772  168.2327 C.3     1  UNL1        0.0091
     11 C         141.7290  142.5659  165.7845 C.ar    1  UNL1       -0.0175
     12 C         143.1963  142.2913  165.6369 C.ar    1  UNL1       -0.0030
     13 C         144.0070  143.0632  164.6385 C.ar    1  UNL1        0.0119
     14 C         143.3504  144.1097  163.7876 C.ar    1  UNL1        0.0682
     15 CL        144.1612  144.8816  162.7892 Cl      1  UNL1       -0.0814
     16 C         141.8832  144.3842  163.9353 C.ar    1  UNL1        0.0679
     17 CL        141.2266  145.4307  163.0844 Cl      1  UNL1       -0.0814
     18 C         141.0725  143.6123  164.9337 C.ar    1  UNL1        0.0083
     19 C         140.1735  141.7885  170.6811 C.3     1  UNL1        0.0172
     20 N         142.2199  140.6484  171.8045 N.3     1  UNL1       -0.3211
     21 C         141.4860  141.8924  171.3997 C.3     1  UNL1        0.0651
     22 H         143.0862  140.9038  172.2784 H       1  UNL1        0.1189
     23 H         142.4362  140.0960  170.9748 H       1  UNL1        0.1189
@<TRIPOS>BOND
     1    20    21    1
     2    21    19    1
     3     1    19    1
     4     1     2    1
     5     2     3    1
     6     3     4   ar
     7     4     5   ar
     8     5     6   ar
     9     6     7   ar
    10     7     8   ar
    11     8     9    1
    12     9    11    1
    13    11    12   ar
    14    12    13   ar
    15    13    14   ar
    16    14    15    1
    17    14    16   ar
    18    16    17    1
    19    16    18   ar
    20     9    10    1
    21    10     1    1
    22     8     3   ar
    23    18    11   ar
    24    20    22    1
    25    20    23    1
@<TRIPOS>MOLECULE
*****
 23 25 0 0 0
SMALL
GASTEIGER

@<TRIPOS>ATOM
      1 C         139.1028  139.3882  164.3984 C.3     1  UNL1        0.0064
      2 C         138.2564  140.4424  163.7486 C.3     1  UNL1        0.0261
      3 C         138.3787  141.8738  164.1801 C.ar    1  UNL1       -0.0258
      4 C         137.5323  142.9279  163.5303 C.ar    1  UNL1       -0.0046
      5 C         137.6546  144.3593  163.9618 C.ar    1  UNL1       -0.0003
      6 C         138.6235  144.7365  165.0430 C.ar    1  UNL1       -0.0003
      7 C         139.4700  143.6824  165.6928 C.ar    1  UNL1       -0.0043
      8 C         139.3476  142.2510  165.2613 C.ar    1  UNL1       -0.0224
      9 C         140.1941  141.1968  165.9111 C.3     1  UNL1        0.0443
     10 C         140.0717  139.7654  165.4796 C.3     1  UNL1        0.0091
     11 C         141.1629  141.5740  166.9923 C.ar    1  UNL1       -0.0175
     12 C         142.5446  142.0352  166.6338 C.ar    1  UNL1       -0.0030
     13 C         143.5134  142.4124  167.7150 C.ar    1  UNL1        0.0119
     14 C         143.1007  142.3284  169.1547 C.ar    1  UNL1        0.0682
     15 CL        144.0695  142.7056  170.2359 Cl      1  UNL1       -0.0814
     16 C         141.7191  141.8672  169.5131 C.ar    1  UNL1        0.0679
     17 CL        141.3063  141.7832  170.9528 Cl      1  UNL1       -0.0814
     18 C         140.7502  141.4900  168.4319 C.ar    1  UNL1        0.0083
     19 C         138.9805  137.9568  163.9669 C.3     1  UNL1        0.0172
     20 N         141.1509  136.8827  163.0260 N.3     1  UNL1       -0.3211
     21 C         139.7817  137.4531  162.8031 C.3     1  UNL1        0.0651
     22 H         141.5476  136.5917  162.1325 H       1  UNL1        0.1189
     23 H         141.0864  136.0769  163.6480 H       1  UNL1        0.1189
@<TRIPOS>BOND
     1    20    21    1
     2    21    19    1
     3     1    19    1
     4     1     2    1
     5     2     3    1
     6     3     4   ar
     7     4     5   ar
     8     5     6   ar
     9     6     7   ar
    10     7     8   ar
    11     8     9    1
    12     9    11    1
    13    11    12   ar
    14    12    13   ar
    15    13    14   ar
    16    14    15    1
    17    14    16   ar
    18    16    17    1
    19    16    18   ar
    20     9    10    1
    21    10     1    1
    22     8     3   ar
    23    18    11   ar
    24    20    22    1
    25    20    23    1
@<TRIPOS>MOLECULE
*****
 23 25 0 0 0
SMALL
GASTEIGER

@<TRIPOS>ATOM
      1 C         140.4196  142.0251  168.7993 C.3     1  UNL1        0.0064
      2 C         139.8688  140.6380  168.6492 C.3     1  UNL1        0.0261
      3 C         139.3783  140.1664  167.3124 C.ar    1  UNL1       -0.0258
      4 C         138.8275  138.7793  167.1623 C.ar    1  UNL1       -0.0046
      5 C         138.3371  138.3077  165.8255 C.ar    1  UNL1       -0.0003
      6 C         138.3974  139.2233  164.6388 C.ar    1  UNL1       -0.0003
      7 C         138.9482  140.6104  164.7889 C.ar    1  UNL1       -0.0043
      8 C         139.4386  141.0819  166.1257 C.ar    1  UNL1       -0.0224
      9 C         139.9894  142.4691  166.2759 C.3     1  UNL1        0.0443
     10 C         140.4799  142.9406  167.6127 C.3     1  UNL1        0.0091
     11 C         140.0498  143.3846  165.0892 C.ar    1  UNL1       -0.0175
     12 C         138.8265  144.1406  164.6623 C.ar    1  UNL1       -0.0030
     13 C         138.8869  145.0561  163.4756 C.ar    1  UNL1        0.0119
     14 C         140.1704  145.2156  162.7159 C.ar    1  UNL1        0.0682
     15 CL        140.2308  146.1312  161.5292 Cl      1  UNL1       -0.0814
     16 C         141.3936  144.4597  163.1429 C.ar    1  UNL1        0.0679
     17 CL        142.6771  144.6192  162.3832 Cl      1  UNL1       -0.0814
     18 C         141.3332  143.5441  164.3295 C.ar    1  UNL1        0.0083
     19 C         140.9100  142.4967  170.1362 C.3     1  UNL1        0.0172
     20 N         142.0563  140.8623  171.7987 N.3     1  UNL1       -0.3211
     21 C         142.1562  141.9081  170.7282 C.3     1  UNL1        0.0651
     22 H         142.9932  140.5765  172.0834 H       1  UNL1        0.1189
     23 H         141.5492  140.0540  171.4382 H       1  UNL1        0.1189
@<TRIPOS>BOND
     1    20    21    1
     2    21    19    1
     3     1    19    1
     4     1     2    1
     5     2     3    1
     6     3     4   ar
     7     4     5   ar
     8     5     6   ar
     9     6     7   ar
    10     7     8   ar
    11     8     9    1
    12     9    11    1
    13    11    12   ar
    14    12    13   ar
    15    13    14   ar
    16    14    15    1
    17    14    16   ar
    18    16    17    1
    19    16    18   ar
    20     9    10    1
    21    10     1    1
    22     8     3   ar
    23    18    11   ar
    24    20    22    1
    25    20    23    1
@<TRIPOS>MOLECULE
*****
 23 25 0 0 0
SMALL
GASTEIGER

@<TRIPOS>ATOM
      1 C         139.1641  139.1270  166.0279 C.3     1  UNL1        0.0064
      2 C         138.8642  139.2935  167.4882 C.3     1  UNL1        0.0261
      3 C         139.4214  140.4664  168.2392 C.ar    1  UNL1       -0.0258
      4 C         139.1215  140.6330  169.6995 C.ar    1  UNL1       -0.0046
      5 C         139.6787  141.8058  170.4504 C.ar    1  UNL1       -0.0003
      6 C         140.5356  142.8121  169.7412 C.ar    1  UNL1       -0.0003
      7 C         140.8355  142.6455  168.2810 C.ar    1  UNL1       -0.0043
      8 C         140.2783  141.4727  167.5300 C.ar    1  UNL1       -0.0224
      9 C         140.5782  141.3061  166.0697 C.3     1  UNL1        0.0443
     10 C         140.0210  140.1332  165.3187 C.3     1  UNL1        0.0091
     11 C         141.4351  142.3123  165.3604 C.ar    1  UNL1       -0.0175
     12 C         140.8160  143.5509  164.7835 C.ar    1  UNL1       -0.0030
     13 C         141.6730  144.5572  164.0742 C.ar    1  UNL1        0.0119
     14 C         143.1490  144.3249  163.9419 C.ar    1  UNL1        0.0682
     15 CL        144.0060  145.3311  163.2327 Cl      1  UNL1       -0.0814
     16 C         143.7680  143.0864  164.5188 C.ar    1  UNL1        0.0679
     17 CL        145.2441  142.8541  164.3865 Cl      1  UNL1       -0.0814
     18 C         142.9111  142.0801  165.2281 C.ar    1  UNL1        0.0083
     19 C         138.6069  137.9541  165.2769 C.3     1  UNL1        0.0172
     20 N         138.4530  137.5203  162.7200 N.3     1  UNL1       -0.3211
     21 C         139.2457  137.5134  163.9933 C.3     1  UNL1        0.0651
     22 H         139.0396  137.1931  161.9524 H       1  UNL1        0.1189
     23 H         138.1338  138.4690  162.5234 H       1  UNL1        0.1189
@<TRIPOS>BOND
     1    20    21    1
     2    21    19    1
     3     1    19    1
     4     1     2    1
     5     2     3    1
     6     3     4   ar
     7     4     5   ar
     8     5     6   ar
     9     6     7   ar
    10     7     8   ar
    11     8     9    1
    12     9    11    1
    13    11    12   ar
    14    12    13   ar
    15    13    14   ar
    16    14    15    1
    17    14    16   ar
    18    16    17    1
    19    16    18   ar
    20     9    10    1
    21    10     1    1
    22     8     3   ar
    23    18    11   ar
    24    20    22    1
    25    20    23    1
@<TRIPOS>MOLECULE
*****
 23 25 0 0 0
SMALL
GASTEIGER

@<TRIPOS>ATOM
      1 C         140.8221  141.6324  168.6979 C.3     1  UNL1        0.0064
      2 C         141.6630  140.4174  168.4393 C.3     1  UNL1        0.0261
      3 C         142.2066  140.1601  167.0651 C.ar    1  UNL1       -0.0258
      4 C         143.0475  138.9452  166.8066 C.ar    1  UNL1       -0.0046
      5 C         143.5911  138.6880  165.4325 C.ar    1  UNL1       -0.0003
      6 C         143.2939  139.6457  164.3169 C.ar    1  UNL1       -0.0003
      7 C         142.4531  140.8607  164.5755 C.ar    1  UNL1       -0.0043
      8 C         141.9095  141.1179  165.9496 C.ar    1  UNL1       -0.0224
      9 C         141.0686  142.3329  166.2082 C.3     1  UNL1        0.0443
     10 C         140.5250  142.5901  167.5823 C.3     1  UNL1        0.0091
     11 C         140.7715  143.2906  165.0927 C.ar    1  UNL1       -0.0175
     12 C         141.8725  144.1234  164.5059 C.ar    1  UNL1       -0.0030
     13 C         141.5753  145.0812  163.3904 C.ar    1  UNL1        0.0119
     14 C         140.1771  145.2060  162.8616 C.ar    1  UNL1        0.0682
     15 CL        139.8800  146.1638  161.7460 Cl      1  UNL1       -0.0814
     16 C         139.0762  144.3732  163.4483 C.ar    1  UNL1        0.0679
     17 CL        137.6780  144.4981  162.9195 Cl      1  UNL1       -0.0814
     18 C         139.3734  143.4155  164.5638 C.ar    1  UNL1        0.0083
     19 C         140.2784  141.8896  170.0721 C.3     1  UNL1        0.0172
     20 N         142.0842  142.2226  171.9100 N.3     1  UNL1       -0.3211
     21 C         141.0145  141.3830  171.2768 C.3     1  UNL1        0.0651
     22 H         142.4756  141.7271  172.7111 H       1  UNL1        0.1189
     23 H         141.6827  143.1073  172.2205 H       1  UNL1        0.1189
@<TRIPOS>BOND
     1    20    21    1
     2    21    19    1
     3     1    19    1
     4     1     2    1
     5     2     3    1
     6     3     4   ar
     7     4     5   ar
     8     5     6   ar
     9     6     7   ar
    10     7     8   ar
    11     8     9    1
    12     9    11    1
    13    11    12   ar
    14    12    13   ar
    15    13    14   ar
    16    14    15    1
    17    14    16   ar
    18    16    17    1
    19    16    18   ar
    20     9    10    1
    21    10     1    1
    22     8     3   ar
    23    18    11   ar
    24    20    22    1
    25    20    23    1
@<TRIPOS>MOLECULE
*****
 23 25 0 0 0
SMALL
GASTEIGER

@<TRIPOS>ATOM
      1 C         138.2861  142.7394  163.9605 C.3     1  UNL1        0.0064
      2 C         138.0711  141.5266  163.1044 C.3     1  UNL1        0.0261
      3 C         138.5377  140.1819  163.5779 C.ar    1  UNL1       -0.0258
      4 C         138.3227  138.9692  162.7218 C.ar    1  UNL1       -0.0046
      5 C         138.7893  137.6246  163.1954 C.ar    1  UNL1       -0.0003
      6 C         139.4709  137.4928  164.5251 C.ar    1  UNL1       -0.0003
      7 C         139.6859  138.7055  165.3812 C.ar    1  UNL1       -0.0043
      8 C         139.2193  140.0501  164.9076 C.ar    1  UNL1       -0.0224
      9 C         139.4343  141.2629  165.7637 C.3     1  UNL1        0.0443
     10 C         138.9677  142.6075  165.2902 C.3     1  UNL1        0.0091
     11 C         140.1159  141.1311  167.0934 C.ar    1  UNL1       -0.0175
     12 C         139.4752  140.3310  168.1886 C.ar    1  UNL1       -0.0030
     13 C         140.1568  140.1991  169.5183 C.ar    1  UNL1        0.0119
     14 C         141.4791  140.8674  169.7528 C.ar    1  UNL1        0.0682
     15 CL        142.1607  140.7355  171.0824 Cl      1  UNL1       -0.0814
     16 C         142.1198  141.6675  168.6576 C.ar    1  UNL1        0.0679
     17 CL        143.4421  142.3357  168.8921 Cl      1  UNL1       -0.0814
     18 C         141.4382  141.7993  167.3279 C.ar    1  UNL1        0.0083
     19 C         137.8195  144.0841  163.4870 C.3     1  UNL1        0.0172
     20 N         139.9789  145.5278  163.4399 N.3     1  UNL1       -0.3211
     21 C         138.7620  144.9878  162.7489 C.3     1  UNL1        0.0651
     22 H         140.5021  146.1194  162.7944 H       1  UNL1        0.1189
     23 H         140.5684  144.7533  163.7451 H       1  UNL1        0.1189
@<TRIPOS>BOND
     1    20    21    1
     2    21    19    1
     3     1    19    1
     4     1     2    1
     5     2     3    1
     6     3     4   ar
     7     4     5   ar
     8     5     6   ar
     9     6     7   ar
    10     7     8   ar
    11     8     9    1
    12     9    11    1
    13    11    12   ar
    14    12    13   ar
    15    13    14   ar
    16    14    15    1
    17    14    16   ar
    18    16    17    1
    19    16    18   ar
    20     9    10    1
    21    10     1    1
    22     8     3   ar
    23    18    11   ar
    24    20    22    1
    25    20    23    1
