@<TRIPOS>MOLECULE
*****
 34 38 0 0 0
SMALL
GASTEIGER

@<TRIPOS>ATOM
      1 C         142.6067  138.7506  159.0658 C.ar    1  UNL1        0.1655
      2 N         141.6190  139.3148  160.0436 N.ar    1  UNL1       -0.2219
      3 C         142.2811  139.3761  161.3881 C.ar    1  UNL1        0.1344
      4 C         141.7924  139.8432  162.7272 C.ar    1  UNL1        0.1049
      5 C         142.7007  139.7841  163.9194 C.ar    1  UNL1        0.0392
      6 C         144.0977  139.2578  163.7726 C.ar    1  UNL1        0.0751
      7 N         144.5863  138.7907  162.4336 N.ar    1  UNL1       -0.3361
      8 C         143.6780  138.8499  161.2413 C.ar    1  UNL1        0.1615
      9 N         143.8793  138.4632  159.8061 N.ar    1  UNL1       -0.2081
     10 H         145.5032  138.4453  162.3372 H       1  UNL1        0.1675
     11 C         143.0056  134.7058  156.3831 C.ar    1  UNL1        0.0535
     12 C         142.6604  134.9277  154.9404 C.ar    1  UNL1        0.0060
     13 C         142.2463  136.2902  154.4693 C.ar    1  UNL1        0.0173
     14 C         142.1776  137.4309  155.4409 C.ar    1  UNL1        0.0601
     15 C         142.5229  137.2090  156.8836 C.ar    1  UNL1        0.0203
     16 C         142.9369  135.8464  157.3547 C.ar    1  UNL1        0.0061
     17 C         142.3645  138.5150  157.6044 C.ar    1  UNL1        0.0544
     18 C         141.9213  139.5440  156.6070 C.ar    1  UNL1        0.0790
     19 N         141.8058  138.8740  155.2699 N.ar    1  UNL1       -0.3240
     20 C         141.3913  139.5316  153.9871 C.3     1  UNL1        0.1305
     21 C         145.2268  131.7537  157.8329 C.3     1  UNL1        0.1109
     22 N         144.8128  133.1163  157.3618 N.am    1  UNL1       -0.2992
     23 C         143.4197  133.3432  156.8542 C.2     1  UNL1        0.2459
     24 O         142.4405  132.2074  156.8178 O.2     1  UNL1       -0.2701
     25 H         145.4555  133.8617  157.3857 H       1  UNL1        0.1498
     26 N         140.3955  140.3695  162.8739 N.ar    1  UNL1       -0.2268
     27 C         140.0086  141.8092  163.0395 C.ar    1  UNL1        0.0991
     28 C         138.5141  141.8781  163.1488 C.ar    1  UNL1        0.0339
     29 C         137.9774  140.4808  163.0507 C.ar    1  UNL1        0.1191
     30 N         139.1402  139.5485  162.8808 N.ar    1  UNL1       -0.1637
     31 C         137.6995  143.1251  163.3252 C.3     1  UNL1        0.1024
     32 N         138.3673  144.4066  163.7271 N.3     1  UNL1       -0.2664
     33 C         138.8946  145.3390  162.6771 C.3     1  UNL1        0.0899
     34 C         138.5080  144.7558  165.1791 C.3     1  UNL1        0.0899
@<TRIPOS>BOND
     1    21    22    1
     2    22    23   am
     3    23    24    2
     4    23    11    1
     5    11    12   ar
     6    12    13   ar
     7    13    14   ar
     8    14    15   ar
     9    15    16   ar
    10    15    17   ar
    11    17     1    1
    12     1     2   ar
    13     2     3   ar
    14     3     4   ar
    15     4    26    1
    16    26    27   ar
    17    27    28   ar
    18    28    31    1
    19    31    32    1
    20    32    33    1
    21    32    34    1
    22    28    29   ar
    23    29    30   ar
    24     4     5   ar
    25     5     6   ar
    26     6     7   ar
    27     7     8   ar
    28     8     9   ar
    29    17    18   ar
    30    18    19   ar
    31    19    20    1
    32    16    11   ar
    33     9     1   ar
    34    19    14   ar
    35     8     3    1
    36    30    26   ar
    37    22    25    1
    38     7    10    1
@<TRIPOS>MOLECULE
*****
 34 38 0 0 0
SMALL
GASTEIGER

@<TRIPOS>ATOM
      1 C         141.5838  140.8147  164.9987 C.ar    1  UNL1        0.1655
      2 N         141.3725  141.8924  163.9770 N.ar    1  UNL1       -0.2219
      3 C         142.6646  142.0942  163.2423 C.ar    1  UNL1        0.1344
      4 C         143.0520  143.0227  162.1297 C.ar    1  UNL1        0.1049
      5 C         144.4493  142.9982  161.5846 C.ar    1  UNL1        0.0392
      6 C         145.4591  142.0452  162.1523 C.ar    1  UNL1        0.0751
      7 N         145.0716  141.1168  163.2648 N.ar    1  UNL1       -0.3361
      8 C         143.6743  141.1413  163.8099 C.ar    1  UNL1        0.1615
      9 N         143.0064  140.3505  164.8954 N.ar    1  UNL1       -0.2081
     10 H         145.7344  140.4913  163.6374 H       1  UNL1        0.1675
     11 C         141.0584  141.4907  169.7928 C.ar    1  UNL1        0.0535
     12 C         139.8694  140.7699  170.3555 C.ar    1  UNL1        0.0060
     13 C         138.9933  139.9510  169.4545 C.ar    1  UNL1        0.0173
     14 C         139.3062  139.8528  167.9909 C.ar    1  UNL1        0.0601
     15 C         140.4952  140.5736  167.4282 C.ar    1  UNL1        0.0203
     16 C         141.3713  141.3925  168.3292 C.ar    1  UNL1        0.0061
     17 C         140.5535  140.2928  165.9558 C.ar    1  UNL1        0.0544
     18 C         139.4004  139.3984  165.6086 C.ar    1  UNL1        0.0790
     19 N         138.6296  139.1265  166.8663 N.ar    1  UNL1       -0.3240
     20 C         137.3983  138.2774  166.9796 C.3     1  UNL1        0.1305
     21 C         143.9308  143.9408  171.0158 C.3     1  UNL1        0.1109
     22 N         143.0547  143.1219  170.1149 N.am    1  UNL1       -0.2992
     23 C         141.9345  142.3096  170.6938 C.2     1  UNL1        0.2459
     24 O         141.6904  142.3163  172.1738 O.2     1  UNL1       -0.2701
     25 H         143.2150  143.1175  169.1435 H       1  UNL1        0.1498
     26 N         142.0422  143.9756  161.5621 N.ar    1  UNL1       -0.2268
     27 C         141.7614  144.1982  160.1055 C.ar    1  UNL1        0.0991
     28 C         140.6815  145.2335  159.9946 C.ar    1  UNL1        0.0339
     29 C         140.2949  145.6506  161.3826 C.ar    1  UNL1        0.1191
     30 N         141.1359  144.8732  162.3514 N.ar    1  UNL1       -0.1637
     31 C         140.0917  145.7592  158.7196 C.3     1  UNL1        0.1024
     32 N         140.7102  145.3971  157.4019 N.3     1  UNL1       -0.2664
     33 C         142.0841  145.8906  157.0574 C.3     1  UNL1        0.0899
     34 C         139.9548  144.5414  156.4287 C.3     1  UNL1        0.0899
@<TRIPOS>BOND
     1    21    22    1
     2    22    23   am
     3    23    24    2
     4    23    11    1
     5    11    12   ar
     6    12    13   ar
     7    13    14   ar
     8    14    15   ar
     9    15    16   ar
    10    15    17   ar
    11    17     1    1
    12     1     2   ar
    13     2     3   ar
    14     3     4   ar
    15     4    26    1
    16    26    27   ar
    17    27    28   ar
    18    28    31    1
    19    31    32    1
    20    32    33    1
    21    32    34    1
    22    28    29   ar
    23    29    30   ar
    24     4     5   ar
    25     5     6   ar
    26     6     7   ar
    27     7     8   ar
    28     8     9   ar
    29    17    18   ar
    30    18    19   ar
    31    19    20    1
    32    16    11   ar
    33     9     1   ar
    34    19    14   ar
    35     8     3    1
    36    30    26   ar
    37    22    25    1
    38     7    10    1
@<TRIPOS>MOLECULE
*****
 34 38 0 0 0
SMALL
GASTEIGER

@<TRIPOS>ATOM
      1 C         142.1389  137.6015  157.1584 C.ar    1  UNL1        0.1655
      2 N         141.4221  137.7447  158.4682 N.ar    1  UNL1       -0.2219
      3 C         142.1304  138.7946  159.2720 C.ar    1  UNL1        0.1344
      4 C         141.8732  139.3555  160.6392 C.ar    1  UNL1        0.1049
      5 C         142.7707  140.4221  161.1933 C.ar    1  UNL1        0.0392
      6 C         143.9253  140.9277  160.3801 C.ar    1  UNL1        0.0751
      7 N         144.1824  140.3668  159.0130 N.ar    1  UNL1       -0.3361
      8 C         143.2850  139.3002  158.4588 C.ar    1  UNL1        0.1615
      9 N         143.2903  138.5629  157.1526 N.ar    1  UNL1       -0.2081
     10 H         144.9403  140.6987  158.4793 H       1  UNL1        0.1675
     11 C         143.2030  132.8976  156.4822 C.ar    1  UNL1        0.0535
     12 C         142.6189  132.3448  155.2160 C.ar    1  UNL1        0.0060
     13 C         141.8058  133.2282  154.3169 C.ar    1  UNL1        0.0173
     14 C         141.5768  134.6645  154.6839 C.ar    1  UNL1        0.0601
     15 C         142.1609  135.2173  155.9500 C.ar    1  UNL1        0.0203
     16 C         142.9740  134.3338  156.8492 C.ar    1  UNL1        0.0061
     17 C         141.7693  136.6619  156.0492 C.ar    1  UNL1        0.0544
     18 C         140.9431  137.0019  154.8442 C.ar    1  UNL1        0.0790
     19 N         140.8242  135.7674  154.0004 N.ar    1  UNL1       -0.3240
     20 C         140.0828  135.6555  152.7013 C.3     1  UNL1        0.1305
     21 C         144.4054  129.7121  158.5209 C.3     1  UNL1        0.1109
     22 N         143.5923  130.5955  157.6218 N.am    1  UNL1       -0.2992
     23 C         144.0160  132.0142  157.3813 C.2     1  UNL1        0.2459
     24 O         145.2528  132.5494  158.0400 O.2     1  UNL1       -0.2701
     25 H         142.7806  130.2442  157.1894 H       1  UNL1        0.1498
     26 N         140.7186  138.8498  161.4522 N.ar    1  UNL1       -0.2268
     27 C         140.7156  138.6262  162.9355 C.ar    1  UNL1        0.0991
     28 C         139.3594  138.1171  163.3248 C.ar    1  UNL1        0.0339
     29 C         138.5242  138.0261  162.0822 C.ar    1  UNL1        0.1191
     30 N         139.3642  138.4789  160.9249 N.ar    1  UNL1       -0.1637
     31 C         138.9162  137.7615  164.7130 C.3     1  UNL1        0.1024
     32 N         138.2858  138.8033  165.5890 N.3     1  UNL1       -0.2664
     33 C         137.6931  138.4132  166.9105 C.3     1  UNL1        0.0899
     34 C         138.2481  140.2350  165.1434 C.3     1  UNL1        0.0899
@<TRIPOS>BOND
     1    21    22    1
     2    22    23   am
     3    23    24    2
     4    23    11    1
     5    11    12   ar
     6    12    13   ar
     7    13    14   ar
     8    14    15   ar
     9    15    16   ar
    10    15    17   ar
    11    17     1    1
    12     1     2   ar
    13     2     3   ar
    14     3     4   ar
    15     4    26    1
    16    26    27   ar
    17    27    28   ar
    18    28    31    1
    19    31    32    1
    20    32    33    1
    21    32    34    1
    22    28    29   ar
    23    29    30   ar
    24     4     5   ar
    25     5     6   ar
    26     6     7   ar
    27     7     8   ar
    28     8     9   ar
    29    17    18   ar
    30    18    19   ar
    31    19    20    1
    32    16    11   ar
    33     9     1   ar
    34    19    14   ar
    35     8     3    1
    36    30    26   ar
    37    22    25    1
    38     7    10    1
@<TRIPOS>MOLECULE
*****
 34 38 0 0 0
SMALL
GASTEIGER

@<TRIPOS>ATOM
      1 C         140.4560  144.4212  160.7015 C.ar    1  UNL1        0.1655
      2 N         139.5970  144.0413  159.5320 N.ar    1  UNL1       -0.2219
      3 C         140.3013  144.4728  158.2799 C.ar    1  UNL1        0.1344
      4 C         139.9313  144.3605  156.8306 C.ar    1  UNL1        0.1049
      5 C         140.8556  144.8949  155.7770 C.ar    1  UNL1        0.0392
      6 C         142.1500  145.5415  156.1728 C.ar    1  UNL1        0.0751
      7 N         142.5199  145.6538  157.6220 N.ar    1  UNL1       -0.3361
      8 C         141.5956  145.1195  158.6757 C.ar    1  UNL1        0.1615
      9 N         141.6912  145.0876  160.1723 N.ar    1  UNL1       -0.2081
     10 H         143.3694  146.0782  157.8818 H       1  UNL1        0.1675
     11 C         141.8459  140.8559  163.7137 C.ar    1  UNL1        0.0535
     12 C         141.2812  141.0076  165.0950 C.ar    1  UNL1        0.0060
     13 C         140.3907  142.1707  165.4176 C.ar    1  UNL1        0.0173
     14 C         140.0648  143.1821  164.3590 C.ar    1  UNL1        0.0601
     15 C         140.6294  143.0304  162.9777 C.ar    1  UNL1        0.0203
     16 C         141.5200  141.8673  162.6550 C.ar    1  UNL1        0.0061
     17 C         140.1360  144.1775  162.1465 C.ar    1  UNL1        0.0544
     18 C         139.2663  145.0382  163.0143 C.ar    1  UNL1        0.0790
     19 N         139.2223  144.4230  164.3816 N.ar    1  UNL1       -0.3240
     20 C         138.4683  144.9552  165.5641 C.3     1  UNL1        0.1305
     21 C         143.7586  138.0564  161.6512 C.3     1  UNL1        0.1109
     22 N         142.8680  139.2195  161.9738 N.am    1  UNL1       -0.2992
     23 C         142.7365  139.6928  163.3910 C.2     1  UNL1        0.2459
     24 O         143.4955  139.0031  164.4856 O.2     1  UNL1       -0.2701
     25 H         142.3699  139.6722  161.2554 H       1  UNL1        0.1498
     26 N         138.6370  143.7139  156.4350 N.ar    1  UNL1       -0.2268
     27 C         138.1341  142.3836  156.9118 C.ar    1  UNL1        0.0991
     28 C         136.8046  142.1315  156.2646 C.ar    1  UNL1        0.0339
     29 C         136.4858  143.3060  155.3877 C.ar    1  UNL1        0.1191
     30 N         137.6183  144.2840  155.4931 N.ar    1  UNL1       -0.1637
     31 C         135.9449  140.9179  156.4599 C.3     1  UNL1        0.1024
     32 N         134.9523  140.5246  155.4063 N.3     1  UNL1       -0.2664
     33 C         133.5476  141.0472  155.4668 C.3     1  UNL1        0.0899
     34 C         135.3644  139.6087  154.2922 C.3     1  UNL1        0.0899
@<TRIPOS>BOND
     1    21    22    1
     2    22    23   am
     3    23    24    2
     4    23    11    1
     5    11    12   ar
     6    12    13   ar
     7    13    14   ar
     8    14    15   ar
     9    15    16   ar
    10    15    17   ar
    11    17     1    1
    12     1     2   ar
    13     2     3   ar
    14     3     4   ar
    15     4    26    1
    16    26    27   ar
    17    27    28   ar
    18    28    31    1
    19    31    32    1
    20    32    33    1
    21    32    34    1
    22    28    29   ar
    23    29    30   ar
    24     4     5   ar
    25     5     6   ar
    26     6     7   ar
    27     7     8   ar
    28     8     9   ar
    29    17    18   ar
    30    18    19   ar
    31    19    20    1
    32    16    11   ar
    33     9     1   ar
    34    19    14   ar
    35     8     3    1
    36    30    26   ar
    37    22    25    1
    38     7    10    1
@<TRIPOS>MOLECULE
*****
 34 38 0 0 0
SMALL
GASTEIGER

@<TRIPOS>ATOM
      1 C         141.4715  144.1260  158.5479 C.ar    1  UNL1        0.1655
      2 N         140.9230  143.6159  159.8475 N.ar    1  UNL1       -0.2219
      3 C         142.0556  143.0118  160.6235 C.ar    1  UNL1        0.1344
      4 C         142.1113  142.3549  161.9708 C.ar    1  UNL1        0.1049
      5 C         143.4157  141.8347  162.4983 C.ar    1  UNL1        0.0392
      6 C         144.6643  141.9715  161.6782 C.ar    1  UNL1        0.0751
      7 N         144.6085  142.6284  160.3310 N.ar    1  UNL1       -0.3361
      8 C         143.3042  143.1486  159.8035 C.ar    1  UNL1        0.1615
      9 N         142.9432  143.8372  158.5208 N.ar    1  UNL1       -0.2081
     10 H         145.4280  142.7182  159.7928 H       1  UNL1        0.1675
     11 C         137.3743  142.7995  156.2744 C.ar    1  UNL1        0.0535
     12 C         136.9332  143.7942  155.2419 C.ar    1  UNL1        0.0060
     13 C         137.7377  145.0383  155.0071 C.ar    1  UNL1        0.0173
     14 C         138.9833  145.2876  155.8048 C.ar    1  UNL1        0.0601
     15 C         139.4243  144.2929  156.8373 C.ar    1  UNL1        0.0203
     16 C         138.6198  143.0489  157.0721 C.ar    1  UNL1        0.0061
     17 C         140.6863  144.8056  157.4655 C.ar    1  UNL1        0.0544
     18 C         141.0252  146.1171  156.8213 C.ar    1  UNL1        0.0790
     19 N         139.9727  146.4150  155.7949 N.ar    1  UNL1       -0.3240
     20 C         139.9189  147.6274  154.9134 C.3     1  UNL1        0.1305
     21 C         134.3652  140.2126  156.2147 C.3     1  UNL1        0.1109
     22 N         135.1697  141.4567  155.9799 N.am    1  UNL1       -0.2992
     23 C         136.5697  141.5555  156.5091 C.2     1  UNL1        0.2459
     24 O         137.1653  140.4102  157.2731 O.2     1  UNL1       -0.2701
     25 H         134.7788  142.2083  155.4785 H       1  UNL1        0.1498
     26 N         140.8627  142.2181  162.7907 N.ar    1  UNL1       -0.2268
     27 C         140.2855  140.9349  163.3106 C.ar    1  UNL1        0.0991
     28 C         139.0381  141.2642  164.0759 C.ar    1  UNL1        0.0339
     29 C         138.8445  142.7509  164.0290 C.ar    1  UNL1        0.1191
     30 N         139.9721  143.3404  163.2347 N.ar    1  UNL1       -0.1637
     31 C         138.1419  140.2797  164.7668 C.3     1  UNL1        0.1024
     32 N         138.7267  139.2537  165.6917 N.3     1  UNL1       -0.2664
     33 C         139.2053  139.6584  167.0544 C.3     1  UNL1        0.0899
     34 C         138.8328  137.8231  165.2537 C.3     1  UNL1        0.0899
@<TRIPOS>BOND
     1    21    22    1
     2    22    23   am
     3    23    24    2
     4    23    11    1
     5    11    12   ar
     6    12    13   ar
     7    13    14   ar
     8    14    15   ar
     9    15    16   ar
    10    15    17   ar
    11    17     1    1
    12     1     2   ar
    13     2     3   ar
    14     3     4   ar
    15     4    26    1
    16    26    27   ar
    17    27    28   ar
    18    28    31    1
    19    31    32    1
    20    32    33    1
    21    32    34    1
    22    28    29   ar
    23    29    30   ar
    24     4     5   ar
    25     5     6   ar
    26     6     7   ar
    27     7     8   ar
    28     8     9   ar
    29    17    18   ar
    30    18    19   ar
    31    19    20    1
    32    16    11   ar
    33     9     1   ar
    34    19    14   ar
    35     8     3    1
    36    30    26   ar
    37    22    25    1
    38     7    10    1
@<TRIPOS>MOLECULE
*****
 34 38 0 0 0
SMALL
GASTEIGER

@<TRIPOS>ATOM
      1 C         141.5747  144.6098  158.2662 C.ar    1  UNL1        0.1655
      2 N         142.3022  143.9643  159.4081 N.ar    1  UNL1       -0.2219
      3 C         141.6422  144.3988  160.6831 C.ar    1  UNL1        0.1344
      4 C         141.9284  144.0802  162.1207 C.ar    1  UNL1        0.1049
      5 C         141.0792  144.6758  163.2043 C.ar    1  UNL1        0.0392
      6 C         139.9438  145.5899  162.8503 C.ar    1  UNL1        0.0751
      7 N         139.6576  145.9084  161.4128 N.ar    1  UNL1       -0.3361
      8 C         140.5068  145.3129  160.3291 C.ar    1  UNL1        0.1615
      9 N         140.4651  145.4433  158.8354 N.ar    1  UNL1       -0.2081
     10 H         138.9124  146.5084  161.1804 H       1  UNL1        0.1675
     11 C         140.4934  147.4151  154.4351 C.ar    1  UNL1        0.0535
     12 C         141.0253  146.8674  153.1439 C.ar    1  UNL1        0.0060
     13 C         141.7982  145.5819  153.1363 C.ar    1  UNL1        0.0173
     14 C         142.0392  144.8441  154.4198 C.ar    1  UNL1        0.0601
     15 C         141.5073  145.3917  155.7109 C.ar    1  UNL1        0.0203
     16 C         140.7344  146.6772  155.7186 C.ar    1  UNL1        0.0061
     17 C         141.8997  144.4499  156.8106 C.ar    1  UNL1        0.0544
     18 C         142.6740  143.3202  156.1990 C.ar    1  UNL1        0.0790
     19 N         142.7603  143.5638  154.7214 N.ar    1  UNL1       -0.3240
     20 C         143.4470  142.6820  153.7210 C.3     1  UNL1        0.1305
     21 C         138.3737  150.5086  155.7339 C.3     1  UNL1        0.1109
     22 N         139.1466  149.2231  155.7263 N.am    1  UNL1       -0.2992
     23 C         139.7205  148.7006  154.4427 C.2     1  UNL1        0.2459
     24 O         139.5215  149.4637  153.1668 O.2     1  UNL1       -0.2701
     25 H         139.2772  148.7222  156.5638 H       1  UNL1        0.1498
     26 N         143.0638  143.1661  162.4746 N.ar    1  UNL1       -0.2268
     27 C         142.9454  141.8394  163.1643 C.ar    1  UNL1        0.0991
     28 C         144.3254  141.2715  163.3169 C.ar    1  UNL1        0.0339
     29 C         145.2966  142.2473  162.7215 C.ar    1  UNL1        0.1191
     30 N         144.5169  143.4182  162.2009 N.ar    1  UNL1       -0.1637
     31 C         144.6730  139.9584  163.9532 C.3     1  UNL1        0.1024
     32 N         143.6105  138.9195  164.1577 N.3     1  UNL1       -0.2664
     33 C         143.2336  138.4956  165.5463 C.3     1  UNL1        0.0899
     34 C         142.9251  138.3046  162.9737 C.3     1  UNL1        0.0899
@<TRIPOS>BOND
     1    21    22    1
     2    22    23   am
     3    23    24    2
     4    23    11    1
     5    11    12   ar
     6    12    13   ar
     7    13    14   ar
     8    14    15   ar
     9    15    16   ar
    10    15    17   ar
    11    17     1    1
    12     1     2   ar
    13     2     3   ar
    14     3     4   ar
    15     4    26    1
    16    26    27   ar
    17    27    28   ar
    18    28    31    1
    19    31    32    1
    20    32    33    1
    21    32    34    1
    22    28    29   ar
    23    29    30   ar
    24     4     5   ar
    25     5     6   ar
    26     6     7   ar
    27     7     8   ar
    28     8     9   ar
    29    17    18   ar
    30    18    19   ar
    31    19    20    1
    32    16    11   ar
    33     9     1   ar
    34    19    14   ar
    35     8     3    1
    36    30    26   ar
    37    22    25    1
    38     7    10    1
@<TRIPOS>MOLECULE
*****
 34 38 0 0 0
SMALL
GASTEIGER

@<TRIPOS>ATOM
      1 C         141.2052  140.8784  164.5008 C.ar    1  UNL1        0.1655
      2 N         141.3318  140.3509  163.1023 N.ar    1  UNL1       -0.2219
      3 C         142.3459  141.1884  162.3810 C.ar    1  UNL1        0.1344
      4 C         142.8785  141.1344  160.9798 C.ar    1  UNL1        0.1049
      5 C         143.9112  142.1255  160.5313 C.ar    1  UNL1        0.0392
      6 C         144.4113  143.1706  161.4841 C.ar    1  UNL1        0.0751
      7 N         143.8787  143.2245  162.8852 N.ar    1  UNL1       -0.3361
      8 C         142.8459  142.2335  163.3338 C.ar    1  UNL1        0.1615
      9 N         142.1410  142.0419  164.6438 N.ar    1  UNL1       -0.2081
     10 H         144.2069  143.9105  163.5105 H       1  UNL1        0.1675
     11 C         140.7767  142.0550  169.2070 C.ar    1  UNL1        0.0535
     12 C         139.7297  141.2480  169.9158 C.ar    1  UNL1        0.0060
     13 C         138.9484  140.2096  169.1667 C.ar    1  UNL1        0.0173
     14 C         139.2140  139.9782  167.7087 C.ar    1  UNL1        0.0601
     15 C         140.2610  140.7852  166.9998 C.ar    1  UNL1        0.0203
     16 C         141.0423  141.8236  167.7489 C.ar    1  UNL1        0.0061
     17 C         140.3014  140.3374  165.5687 C.ar    1  UNL1        0.0544
     18 C         139.2794  139.2536  165.3932 C.ar    1  UNL1        0.0790
     19 N         138.6074  139.0316  166.7158 N.ar    1  UNL1       -0.3240
     20 C         137.5196  138.0376  166.9962 C.3     1  UNL1        0.1305
     21 C         143.7351  143.8327  171.1658 C.3     1  UNL1        0.1109
     22 N         142.9538  142.7943  170.4167 N.am    1  UNL1       -0.2992
     23 C         141.5580  143.0935  169.9561 C.2     1  UNL1        0.2459
     24 O         140.9435  144.4310  170.2447 O.2     1  UNL1       -0.2701
     25 H         143.3571  141.9164  170.2273 H       1  UNL1        0.1498
     26 N         142.3784  140.0892  160.0272 N.ar    1  UNL1       -0.2268
     27 C         143.2097  139.0331  159.3613 C.ar    1  UNL1        0.0991
     28 C         142.3042  138.2078  158.4957 C.ar    1  UNL1        0.0339
     29 C         140.9134  138.7540  158.6266 C.ar    1  UNL1        0.1191
     30 N         140.9592  139.9168  159.5731 N.ar    1  UNL1       -0.1637
     31 C         142.7172  137.0413  157.6480 C.3     1  UNL1        0.1024
     32 N         143.0496  137.2469  156.1998 N.3     1  UNL1       -0.2664
     33 C         144.1232  136.4233  155.5525 C.3     1  UNL1        0.0899
     34 C         142.3084  138.2761  155.3991 C.3     1  UNL1        0.0899
@<TRIPOS>BOND
     1    21    22    1
     2    22    23   am
     3    23    24    2
     4    23    11    1
     5    11    12   ar
     6    12    13   ar
     7    13    14   ar
     8    14    15   ar
     9    15    16   ar
    10    15    17   ar
    11    17     1    1
    12     1     2   ar
    13     2     3   ar
    14     3     4   ar
    15     4    26    1
    16    26    27   ar
    17    27    28   ar
    18    28    31    1
    19    31    32    1
    20    32    33    1
    21    32    34    1
    22    28    29   ar
    23    29    30   ar
    24     4     5   ar
    25     5     6   ar
    26     6     7   ar
    27     7     8   ar
    28     8     9   ar
    29    17    18   ar
    30    18    19   ar
    31    19    20    1
    32    16    11   ar
    33     9     1   ar
    34    19    14   ar
    35     8     3    1
    36    30    26   ar
    37    22    25    1
    38     7    10    1
@<TRIPOS>MOLECULE
*****
 34 38 0 0 0
SMALL
GASTEIGER

@<TRIPOS>ATOM
      1 C         139.5036  141.8491  160.1944 C.ar    1  UNL1        0.1655
      2 N         139.9070  141.3344  161.5444 N.ar    1  UNL1       -0.2219
      3 C         139.2414  142.1871  162.5835 C.ar    1  UNL1        0.1344
      4 C         139.2720  142.1496  164.0827 C.ar    1  UNL1        0.1049
      5 C         138.4878  143.1539  164.8742 C.ar    1  UNL1        0.0392
      6 C         137.6730  144.1957  164.1664 C.ar    1  UNL1        0.0751
      7 N         137.6425  144.2331  162.6673 N.ar    1  UNL1       -0.3361
      8 C         138.4267  143.2288  161.8757 C.ar    1  UNL1        0.1615
      9 N         138.5887  143.0199  160.3993 N.ar    1  UNL1       -0.2081
     10 H         137.1077  144.9168  162.2028 H       1  UNL1        0.1675
     11 C         136.9298  140.6839  156.2278 C.ar    1  UNL1        0.0535
     12 C         137.7836  140.1506  155.1157 C.ar    1  UNL1        0.0060
     13 C         139.2668  140.0267  155.3022 C.ar    1  UNL1        0.0173
     14 C         139.8962  140.4361  156.6007 C.ar    1  UNL1        0.0601
     15 C         139.0425  140.9694  157.7128 C.ar    1  UNL1        0.0203
     16 C         137.5593  141.0933  157.5263 C.ar    1  UNL1        0.0061
     17 C         139.9387  141.2909  158.8719 C.ar    1  UNL1        0.0544
     18 C         141.3463  140.9563  158.4762 C.ar    1  UNL1        0.0790
     19 N         141.3200  140.4280  157.0725 N.ar    1  UNL1       -0.3240
     20 C         142.5089  139.9717  156.2798 C.3     1  UNL1        0.1305
     21 C         133.0319  140.0806  156.6656 C.3     1  UNL1        0.1109
     22 N         134.5151  139.9566  156.8521 N.am    1  UNL1       -0.2992
     23 C         135.4466  140.8079  156.0413 C.2     1  UNL1        0.2459
     24 O         134.8950  141.7831  155.0440 O.2     1  UNL1       -0.2701
     25 H         134.8771  139.3165  157.5066 H       1  UNL1        0.1498
     26 N         140.0868  141.1079  164.7904 N.ar    1  UNL1       -0.2268
     27 C         140.9835  141.3411  165.9700 C.ar    1  UNL1        0.0991
     28 C         141.5989  140.0274  166.3514 C.ar    1  UNL1        0.0339
     29 C         141.0825  138.9822  165.4075 C.ar    1  UNL1        0.1191
     30 N         140.1480  139.6500  164.4427 N.ar    1  UNL1       -0.1637
     31 C         142.5616  139.7989  167.4788 C.3     1  UNL1        0.1024
     32 N         142.2428  140.3100  168.8525 N.3     1  UNL1       -0.2664
     33 C         141.0294  139.8070  169.5768 C.3     1  UNL1        0.0899
     34 C         143.1372  141.3239  169.5018 C.3     1  UNL1        0.0899
@<TRIPOS>BOND
     1    21    22    1
     2    22    23   am
     3    23    24    2
     4    23    11    1
     5    11    12   ar
     6    12    13   ar
     7    13    14   ar
     8    14    15   ar
     9    15    16   ar
    10    15    17   ar
    11    17     1    1
    12     1     2   ar
    13     2     3   ar
    14     3     4   ar
    15     4    26    1
    16    26    27   ar
    17    27    28   ar
    18    28    31    1
    19    31    32    1
    20    32    33    1
    21    32    34    1
    22    28    29   ar
    23    29    30   ar
    24     4     5   ar
    25     5     6   ar
    26     6     7   ar
    27     7     8   ar
    28     8     9   ar
    29    17    18   ar
    30    18    19   ar
    31    19    20    1
    32    16    11   ar
    33     9     1   ar
    34    19    14   ar
    35     8     3    1
    36    30    26   ar
    37    22    25    1
    38     7    10    1
@<TRIPOS>MOLECULE
*****
 34 38 0 0 0
SMALL
GASTEIGER

@<TRIPOS>ATOM
      1 C         140.4198  144.8683  158.7360 C.ar    1  UNL1        0.1655
      2 N         141.0407  143.7081  159.4560 N.ar    1  UNL1       -0.2219
      3 C         141.1243  144.0574  160.9124 C.ar    1  UNL1        0.1344
      4 C         141.6452  143.3002  162.0978 C.ar    1  UNL1        0.1049
      5 C         141.5969  143.9190  163.4634 C.ar    1  UNL1        0.0392
      6 C         141.0277  145.2951  163.6434 C.ar    1  UNL1        0.0751
      7 N         140.5068  146.0523  162.4580 N.ar    1  UNL1       -0.3361
      8 C         140.5551  145.4334  161.0924 C.ar    1  UNL1        0.1615
      9 N         140.1197  145.9347  159.7474 N.ar    1  UNL1       -0.2081
     10 H         140.1332  146.9554  162.5762 H       1  UNL1        0.1675
     11 C         137.2692  142.4204  155.9436 C.ar    1  UNL1        0.0535
     12 C         137.3332  142.8257  154.5009 C.ar    1  UNL1        0.0060
     13 C         138.3004  143.8847  154.0615 C.ar    1  UNL1        0.0173
     14 C         139.2036  144.5384  155.0649 C.ar    1  UNL1        0.0601
     15 C         139.1396  144.1331  156.5076 C.ar    1  UNL1        0.0203
     16 C         138.1724  143.0741  156.9470 C.ar    1  UNL1        0.0061
     17 C         140.1469  144.9483  157.2632 C.ar    1  UNL1        0.0544
     18 C         140.8334  145.8574  156.2874 C.ar    1  UNL1        0.0790
     19 N         140.2504  145.6040  154.9288 N.ar    1  UNL1       -0.3240
     20 C         140.6449  146.2950  153.6572 C.3     1  UNL1        0.1305
     21 C         133.9392  140.2868  156.2731 C.3     1  UNL1        0.1109
     22 N         134.9063  141.3458  155.8337 N.am    1  UNL1       -0.2992
     23 C         136.3020  141.3614  156.3830 C.2     1  UNL1        0.2459
     24 O         136.7305  140.3179  157.3717 O.2     1  UNL1       -0.2701
     25 H         134.6251  142.0307  155.1848 H       1  UNL1        0.1498
     26 N         142.2144  141.9241  161.9177 N.ar    1  UNL1       -0.2268
     27 C         141.6638  140.6585  162.5051 C.ar    1  UNL1        0.0991
     28 C         142.5432  139.5242  162.0690 C.ar    1  UNL1        0.0339
     29 C         143.6372  140.0888  161.2121 C.ar    1  UNL1        0.1191
     30 N         143.4340  141.5721  161.1186 N.ar    1  UNL1       -0.1637
     31 C         142.3606  138.0790  162.4269 C.3     1  UNL1        0.1024
     32 N         141.1097  137.6310  163.1230 N.3     1  UNL1       -0.2664
     33 C         141.1761  137.1273  164.5343 C.3     1  UNL1        0.0899
     34 C         139.7925  137.6868  162.4078 C.3     1  UNL1        0.0899
@<TRIPOS>BOND
     1    21    22    1
     2    22    23   am
     3    23    24    2
     4    23    11    1
     5    11    12   ar
     6    12    13   ar
     7    13    14   ar
     8    14    15   ar
     9    15    16   ar
    10    15    17   ar
    11    17     1    1
    12     1     2   ar
    13     2     3   ar
    14     3     4   ar
    15     4    26    1
    16    26    27   ar
    17    27    28   ar
    18    28    31    1
    19    31    32    1
    20    32    33    1
    21    32    34    1
    22    28    29   ar
    23    29    30   ar
    24     4     5   ar
    25     5     6   ar
    26     6     7   ar
    27     7     8   ar
    28     8     9   ar
    29    17    18   ar
    30    18    19   ar
    31    19    20    1
    32    16    11   ar
    33     9     1   ar
    34    19    14   ar
    35     8     3    1
    36    30    26   ar
    37    22    25    1
    38     7    10    1
