@<TRIPOS>MOLECULE
*****
 25 27 0 0 0
SMALL
GASTEIGER

@<TRIPOS>ATOM
      1 C         142.8988  142.2154  169.9832 C.ar    1  UNL1       -0.0001
      2 C         142.0694  141.9120  171.1956 C.ar    1  UNL1       -0.0003
      3 C         140.7942  141.1344  171.0567 C.ar    1  UNL1       -0.0029
      4 C         140.3485  140.6602  169.7053 C.ar    1  UNL1       -0.0047
      5 C         141.1779  140.9635  168.4928 C.ar    1  UNL1       -0.0047
      6 C         142.4530  141.7411  168.6318 C.ar    1  UNL1       -0.0029
      7 C         140.4892  140.3699  167.2997 C.3     1  UNL1        0.1202
      8 N         139.2342  139.6996  167.7748 N.am    1  UNL1       -0.2713
      9 C         138.2406  138.9769  166.9143 C.2     1  UNL1        0.2256
     10 O         137.0256  138.3528  167.5341 O.2     1  UNL1       -0.2749
     11 C         139.1472  139.8791  169.2615 C.3     1  UNL1        0.1202
     12 C         138.4621  138.8782  165.4341 C.3     1  UNL1        0.0767
     13 C         138.1140  140.0351  164.5449 C.3     1  UNL1        0.0091
     14 C         138.3355  139.9364  163.0646 C.3     1  UNL1        0.0005
     15 C         138.9051  138.6809  162.4735 C.3     1  UNL1        0.0000
     16 C         139.2532  137.5241  163.3627 C.3     1  UNL1        0.0005
     17 C         139.0317  137.6228  164.8430 C.3     1  UNL1        0.0091
     18 C         144.2668  144.1092  171.1199 C.2     1  UNL1        0.0598
     19 C         144.1739  142.9930  170.1222 C.2     1  UNL1        0.0047
     20 O         146.8320  144.3072  170.7592 O.2     1  UNL1       -0.2681
     21 C         145.5419  144.8868  171.2588 C.2     1  UNL1        0.2679
     22 N         145.5269  146.2440  171.8975 N.am    1  UNL1       -0.1934
     23 O         146.8021  147.0216  172.0365 O.3     1  UNL1       -0.2949
     24 H         144.6802  146.6244  172.2255 H       1  UNL1        0.1825
     25 H         147.5363  146.5075  171.6658 H       1  UNL1        0.2414
@<TRIPOS>BOND
     1    20    21    2
     2    21    18    1
     3    18    19    2
     4    19     1    1
     5     1     2   ar
     6     2     3   ar
     7     3     4   ar
     8     4     5   ar
     9     5     6   ar
    10     5     7    1
    11     7     8    1
    12     8     9   am
    13     9    10    2
    14     9    12    1
    15    12    13    1
    16    13    14    1
    17    14    15    1
    18    15    16    1
    19    16    17    1
    20     8    11    1
    21    21    22   am
    22    22    23    1
    23     6     1   ar
    24    17    12    1
    25    11     4    1
    26    22    24    1
    27    23    25    1
@<TRIPOS>MOLECULE
*****
 25 27 0 0 0
SMALL
GASTEIGER

@<TRIPOS>ATOM
      1 C         139.2841  140.5894  169.5765 C.ar    1  UNL1       -0.0001
      2 C         139.7492  141.9902  169.8439 C.ar    1  UNL1       -0.0003
      3 C         140.5560  142.7222  168.8128 C.ar    1  UNL1       -0.0029
      4 C         140.8978  142.0535  167.5144 C.ar    1  UNL1       -0.0047
      5 C         140.4328  140.6527  167.2470 C.ar    1  UNL1       -0.0047
      6 C         139.6259  139.9206  168.2781 C.ar    1  UNL1       -0.0029
      7 C         140.9198  140.2545  165.8853 C.3     1  UNL1        0.1202
      8 N         141.6858  141.4092  165.3110 N.am    1  UNL1       -0.2713
      9 C         142.3490  141.4458  163.9660 C.2     1  UNL1        0.2256
     10 O         143.0834  142.6772  163.5251 O.2     1  UNL1       -0.2749
     11 C         141.6723  142.5210  166.3179 C.3     1  UNL1        0.1202
     12 C         142.2779  140.2509  163.0620 C.3     1  UNL1        0.0767
     13 C         143.4370  139.3023  162.9801 C.3     1  UNL1        0.0091
     14 C         143.3659  138.1074  162.0761 C.3     1  UNL1        0.0005
     15 C         142.1356  137.8612  161.2540 C.3     1  UNL1        0.0000
     16 C         140.9765  138.8097  161.3360 C.3     1  UNL1        0.0005
     17 C         141.0477  140.0046  162.2400 C.3     1  UNL1        0.0091
     18 C         137.2197  139.1441  170.2082 C.2     1  UNL1        0.0598
     19 C         138.4773  139.8573  170.6076 C.2     1  UNL1        0.0047
     20 O         136.5060  136.9186  171.3430 O.2     1  UNL1       -0.2681
     21 C         136.4128  138.4121  171.2392 C.2     1  UNL1        0.2679
     22 N         135.5127  139.1736  172.1666 N.am    1  UNL1       -0.1934
     23 O         134.7058  138.4415  173.1977 O.3     1  UNL1       -0.2949
     24 H         135.4515  140.1538  172.0985 H       1  UNL1        0.1825
     25 H         134.8816  137.4900  173.1300 H       1  UNL1        0.2414
@<TRIPOS>BOND
     1    20    21    2
     2    21    18    1
     3    18    19    2
     4    19     1    1
     5     1     2   ar
     6     2     3   ar
     7     3     4   ar
     8     4     5   ar
     9     5     6   ar
    10     5     7    1
    11     7     8    1
    12     8     9   am
    13     9    10    2
    14     9    12    1
    15    12    13    1
    16    13    14    1
    17    14    15    1
    18    15    16    1
    19    16    17    1
    20     8    11    1
    21    21    22   am
    22    22    23    1
    23     6     1   ar
    24    17    12    1
    25    11     4    1
    26    22    24    1
    27    23    25    1
@<TRIPOS>MOLECULE
*****
 25 27 0 0 0
SMALL
GASTEIGER

@<TRIPOS>ATOM
      1 C         139.9153  140.2236  168.0417 C.ar    1  UNL1       -0.0001
      2 C         138.5857  139.5296  168.0215 C.ar    1  UNL1       -0.0003
      3 C         138.0824  138.9096  166.7517 C.ar    1  UNL1       -0.0029
      4 C         138.9088  138.9836  165.5021 C.ar    1  UNL1       -0.0047
      5 C         140.2385  139.6775  165.5223 C.ar    1  UNL1       -0.0047
      6 C         140.7417  140.2975  166.7920 C.ar    1  UNL1       -0.0029
      7 C         140.8269  139.5922  164.1451 C.3     1  UNL1        0.1202
      8 N         139.8608  138.8455  163.2738 N.am    1  UNL1       -0.2713
      9 C         140.0474  138.5302  161.8191 C.2     1  UNL1        0.2256
     10 O         138.9891  137.7716  161.0744 O.2     1  UNL1       -0.2749
     11 C         138.6754  138.4694  164.1125 C.3     1  UNL1        0.1202
     12 C         141.2922  138.9736  161.1093 C.3     1  UNL1        0.0767
     13 C         141.2840  140.2355  160.2983 C.3     1  UNL1        0.0091
     14 C         142.5288  140.6788  159.5884 C.3     1  UNL1        0.0005
     15 C         143.7818  139.8603  159.6896 C.3     1  UNL1        0.0000
     16 C         143.7899  138.5985  160.5006 C.3     1  UNL1        0.0005
     17 C         142.5451  138.1551  161.2105 C.3     1  UNL1        0.0091
     18 C         141.4788  141.9034  169.2598 C.2     1  UNL1        0.0598
     19 C         140.4186  140.8436  169.3114 C.2     1  UNL1        0.0047
     20 O         141.3902  142.1194  171.8473 O.2     1  UNL1       -0.2681
     21 C         141.9820  142.5234  170.5295 C.2     1  UNL1        0.2679
     22 N         143.0772  143.5473  170.4815 N.am    1  UNL1       -0.1934
     23 O         143.5805  144.1673  171.7513 O.3     1  UNL1       -0.2949
     24 H         143.4656  143.8124  169.6166 H       1  UNL1        0.1825
     25 H         143.0951  143.7983  172.5058 H       1  UNL1        0.2414
@<TRIPOS>BOND
     1    20    21    2
     2    21    18    1
     3    18    19    2
     4    19     1    1
     5     1     2   ar
     6     2     3   ar
     7     3     4   ar
     8     4     5   ar
     9     5     6   ar
    10     5     7    1
    11     7     8    1
    12     8     9   am
    13     9    10    2
    14     9    12    1
    15    12    13    1
    16    13    14    1
    17    14    15    1
    18    15    16    1
    19    16    17    1
    20     8    11    1
    21    21    22   am
    22    22    23    1
    23     6     1   ar
    24    17    12    1
    25    11     4    1
    26    22    24    1
    27    23    25    1
@<TRIPOS>MOLECULE
*****
 25 27 0 0 0
SMALL
GASTEIGER

@<TRIPOS>ATOM
      1 C         142.2284  139.4561  169.7489 C.ar    1  UNL1       -0.0001
      2 C         140.7700  139.6461  170.0432 C.ar    1  UNL1       -0.0003
      3 C         139.8994  140.3880  169.0729 C.ar    1  UNL1       -0.0029
      4 C         140.4873  140.9400  167.8081 C.ar    1  UNL1       -0.0047
      5 C         141.9457  140.7501  167.5138 C.ar    1  UNL1       -0.0047
      6 C         142.8163  140.0082  168.4841 C.ar    1  UNL1       -0.0029
      7 C         142.2413  141.4019  166.1955 C.3     1  UNL1        0.1202
      8 N         140.9654  141.9947  165.6751 N.am    1  UNL1       -0.2713
      9 C         140.8022  142.7418  164.3846 C.2     1  UNL1        0.2256
     10 O         139.4575  143.2798  163.9944 O.2     1  UNL1       -0.2749
     11 C         139.8814  141.7092  166.6718 C.3     1  UNL1        0.1202
     12 C         141.9837  142.9509  163.4845 C.3     1  UNL1        0.0767
     13 C         142.8670  144.1486  163.6723 C.3     1  UNL1        0.0091
     14 C         144.0485  144.3577  162.7721 C.3     1  UNL1        0.0005
     15 C         144.3467  143.3690  161.6841 C.3     1  UNL1        0.0000
     16 C         143.4635  142.1713  161.4964 C.3     1  UNL1        0.0005
     17 C         142.2819  141.9622  162.3965 C.3     1  UNL1        0.0091
     18 C         143.5828  137.3334  170.3888 C.2     1  UNL1        0.0598
     19 C         143.0990  138.7142  170.7192 C.2     1  UNL1        0.0047
     20 O         145.7988  137.1404  171.7312 O.2     1  UNL1       -0.2681
     21 C         144.4534  136.5914  171.3592 C.2     1  UNL1        0.2679
     22 N         143.9785  135.3005  171.9576 N.am    1  UNL1       -0.1934
     23 O         144.8490  134.5585  172.9279 O.3     1  UNL1       -0.2949
     24 H         143.0954  134.9402  171.7134 H       1  UNL1        0.1825
     25 H         145.6775  135.0463  173.0574 H       1  UNL1        0.2414
@<TRIPOS>BOND
     1    20    21    2
     2    21    18    1
     3    18    19    2
     4    19     1    1
     5     1     2   ar
     6     2     3   ar
     7     3     4   ar
     8     4     5   ar
     9     5     6   ar
    10     5     7    1
    11     7     8    1
    12     8     9   am
    13     9    10    2
    14     9    12    1
    15    12    13    1
    16    13    14    1
    17    14    15    1
    18    15    16    1
    19    16    17    1
    20     8    11    1
    21    21    22   am
    22    22    23    1
    23     6     1   ar
    24    17    12    1
    25    11     4    1
    26    22    24    1
    27    23    25    1
@<TRIPOS>MOLECULE
*****
 25 27 0 0 0
SMALL
GASTEIGER

@<TRIPOS>ATOM
      1 C         139.9836  140.5243  167.3101 C.ar    1  UNL1       -0.0001
      2 C         138.8569  139.5373  167.3888 C.ar    1  UNL1       -0.0003
      3 C         138.1128  139.1477  166.1460 C.ar    1  UNL1       -0.0029
      4 C         138.4955  139.7452  164.8244 C.ar    1  UNL1       -0.0047
      5 C         139.6222  140.7322  164.7457 C.ar    1  UNL1       -0.0047
      6 C         140.3663  141.1217  165.9886 C.ar    1  UNL1       -0.0029
      7 C         139.7720  141.1514  163.3132 C.3     1  UNL1        0.1202
      8 N         138.7379  140.4235  162.5067 N.am    1  UNL1       -0.2713
      9 C         138.5292  140.5435  161.0261 C.2     1  UNL1        0.2256
     10 O         137.4491  139.7488  160.3540 O.2     1  UNL1       -0.2749
     11 C         137.9489  139.5544  163.4407 C.3     1  UNL1        0.1202
     12 C         139.4007  141.4583  160.2176 C.3     1  UNL1        0.0767
     13 C         139.0041  142.8915  160.0203 C.3     1  UNL1        0.0091
     14 C         139.8755  143.8063  159.2118 C.3     1  UNL1        0.0005
     15 C         141.1436  143.2880  158.6007 C.3     1  UNL1        0.0000
     16 C         141.5402  141.8549  158.7981 C.3     1  UNL1        0.0005
     17 C         140.6687  140.9401  159.6065 C.3     1  UNL1        0.0091
     18 C         140.5203  142.2711  169.1569 C.2     1  UNL1        0.0598
     19 C         140.7277  140.9138  168.5529 C.2     1  UNL1        0.0047
     20 O         140.7326  142.2682  171.7463 O.2     1  UNL1       -0.2681
     21 C         141.2643  142.6606  170.3997 C.2     1  UNL1        0.2679
     22 N         142.5402  143.4426  170.2960 N.am    1  UNL1       -0.1934
     23 O         143.2842  143.8322  171.5388 O.3     1  UNL1       -0.2949
     24 H         142.8892  143.7002  169.4122 H       1  UNL1        0.1825
     25 H         142.8083  143.5027  172.3172 H       1  UNL1        0.2414
@<TRIPOS>BOND
     1    20    21    2
     2    21    18    1
     3    18    19    2
     4    19     1    1
     5     1     2   ar
     6     2     3   ar
     7     3     4   ar
     8     4     5   ar
     9     5     6   ar
    10     5     7    1
    11     7     8    1
    12     8     9   am
    13     9    10    2
    14     9    12    1
    15    12    13    1
    16    13    14    1
    17    14    15    1
    18    15    16    1
    19    16    17    1
    20     8    11    1
    21    21    22   am
    22    22    23    1
    23     6     1   ar
    24    17    12    1
    25    11     4    1
    26    22    24    1
    27    23    25    1
@<TRIPOS>MOLECULE
*****
 25 27 0 0 0
SMALL
GASTEIGER

@<TRIPOS>ATOM
      1 C         142.1731  139.1773  169.5047 C.ar    1  UNL1       -0.0001
      2 C         140.8531  139.7908  169.8670 C.ar    1  UNL1       -0.0003
      3 C         140.0147  140.4453  168.8093 C.ar    1  UNL1       -0.0029
      4 C         140.4963  140.4864  167.3893 C.ar    1  UNL1       -0.0047
      5 C         141.8163  139.8730  167.0271 C.ar    1  UNL1       -0.0047
      6 C         142.6547  139.2185  168.0848 C.ar    1  UNL1       -0.0029
      7 C         142.0284  140.0654  165.5546 C.3     1  UNL1        0.1202
      8 N         140.8394  140.7978  165.0069 N.am    1  UNL1       -0.2713
      9 C         140.6334  141.1995  163.5764 C.2     1  UNL1        0.2256
     10 O         139.3873  141.9315  163.1749 O.2     1  UNL1       -0.2749
     11 C         139.8925  141.0580  166.1408 C.3     1  UNL1        0.1202
     12 C         141.6736  140.8691  162.5474 C.3     1  UNL1        0.0767
     13 C         141.5857  139.5845  161.7777 C.3     1  UNL1        0.0091
     14 C         142.6258  139.2541  160.7487 C.3     1  UNL1        0.0005
     15 C         143.7540  140.2082  160.4894 C.3     1  UNL1        0.0000
     16 C         143.8418  141.4927  161.2591 C.3     1  UNL1        0.0005
     17 C         142.8017  141.8231  162.2881 C.3     1  UNL1        0.0091
     18 C         143.6544  137.1944  170.2943 C.2     1  UNL1        0.0598
     19 C         143.0114  138.5228  170.5624 C.2     1  UNL1        0.0047
     20 O         145.8147  137.1353  171.7363 O.2     1  UNL1       -0.2681
     21 C         144.4927  136.5398  171.3520 C.2     1  UNL1        0.2679
     22 N         144.0091  135.2897  172.0254 N.am    1  UNL1       -0.1934
     23 O         144.8475  134.6351  173.0830 O.3     1  UNL1       -0.2949
     24 H         143.1414  134.8988  171.7731 H       1  UNL1        0.1825
     25 H         145.6638  135.1437  173.2093 H       1  UNL1        0.2414
@<TRIPOS>BOND
     1    20    21    2
     2    21    18    1
     3    18    19    2
     4    19     1    1
     5     1     2   ar
     6     2     3   ar
     7     3     4   ar
     8     4     5   ar
     9     5     6   ar
    10     5     7    1
    11     7     8    1
    12     8     9   am
    13     9    10    2
    14     9    12    1
    15    12    13    1
    16    13    14    1
    17    14    15    1
    18    15    16    1
    19    16    17    1
    20     8    11    1
    21    21    22   am
    22    22    23    1
    23     6     1   ar
    24    17    12    1
    25    11     4    1
    26    22    24    1
    27    23    25    1
@<TRIPOS>MOLECULE
*****
 25 27 0 0 0
SMALL
GASTEIGER

@<TRIPOS>ATOM
      1 C         138.9463  139.3125  166.3102 C.ar    1  UNL1       -0.0001
      2 C         138.6227  137.9350  165.8125 C.ar    1  UNL1       -0.0003
      3 C         138.7406  137.6187  164.3510 C.ar    1  UNL1       -0.0029
      4 C         139.1819  138.6799  163.3871 C.ar    1  UNL1       -0.0047
      5 C         139.5055  140.0574  163.8848 C.ar    1  UNL1       -0.0047
      6 C         139.3877  140.3737  165.3463 C.ar    1  UNL1       -0.0029
      7 C         139.9125  140.8922  162.7068 C.3     1  UNL1        0.1202
      8 N         139.8405  140.0305  161.4812 N.am    1  UNL1       -0.2713
      9 C         140.1633  140.4605  160.0808 C.2     1  UNL1        0.2256
     10 O         140.0445  139.4826  158.9497 O.2     1  UNL1       -0.2749
     11 C         139.3890  138.6632  161.9016 C.3     1  UNL1        0.1202
     12 C         140.6050  141.8686  159.8116 C.3     1  UNL1        0.0767
     13 C         139.5853  142.9380  159.5533 C.3     1  UNL1        0.0091
     14 C         140.0269  144.3460  159.2841 C.3     1  UNL1        0.0005
     15 C         141.4883  144.6846  159.2733 C.3     1  UNL1        0.0000
     16 C         142.5078  143.6152  159.5317 C.3     1  UNL1        0.0005
     17 C         142.0662  142.2072  159.8008 C.3     1  UNL1        0.0091
     18 C         139.9702  140.2829  168.4919 C.2     1  UNL1        0.0598
     19 C         138.8285  139.6289  167.7717 C.2     1  UNL1        0.0047
     20 O         139.0173  139.7282  170.8444 O.2     1  UNL1       -0.2681
     21 C         139.8524  140.5992  169.9535 C.2     1  UNL1        0.2679
     22 N         140.5697  141.7867  170.5240 N.am    1  UNL1       -0.1934
     23 O         140.4519  142.1030  171.9855 O.3     1  UNL1       -0.2949
     24 H         141.1179  142.3584  169.9392 H       1  UNL1        0.1825
     25 H         139.8801  141.4466  172.4134 H       1  UNL1        0.2414
@<TRIPOS>BOND
     1    20    21    2
     2    21    18    1
     3    18    19    2
     4    19     1    1
     5     1     2   ar
     6     2     3   ar
     7     3     4   ar
     8     4     5   ar
     9     5     6   ar
    10     5     7    1
    11     7     8    1
    12     8     9   am
    13     9    10    2
    14     9    12    1
    15    12    13    1
    16    13    14    1
    17    14    15    1
    18    15    16    1
    19    16    17    1
    20     8    11    1
    21    21    22   am
    22    22    23    1
    23     6     1   ar
    24    17    12    1
    25    11     4    1
    26    22    24    1
    27    23    25    1
@<TRIPOS>MOLECULE
*****
 25 27 0 0 0
SMALL
GASTEIGER

@<TRIPOS>ATOM
      1 C         142.7157  139.5157  169.9986 C.ar    1  UNL1       -0.0001
      2 C         142.2128  140.8316  170.5136 C.ar    1  UNL1       -0.0003
      3 C         141.3569  141.7010  169.6409 C.ar    1  UNL1       -0.0029
      4 C         141.0039  141.2544  168.2532 C.ar    1  UNL1       -0.0047
      5 C         141.5067  139.9385  167.7381 C.ar    1  UNL1       -0.0047
      6 C         142.3626  139.0691  168.6108 C.ar    1  UNL1       -0.0029
      7 C         140.9983  139.7639  166.3377 C.3     1  UNL1        0.1202
      8 N         140.1813  140.9720  165.9873 N.am    1  UNL1       -0.2713
      9 C         139.4833  141.2162  164.6822 C.2     1  UNL1        0.2256
     10 O         138.6988  142.4779  164.4757 O.2     1  UNL1       -0.2749
     11 C         140.1847  141.8932  167.1711 C.3     1  UNL1        0.1202
     12 C         139.5698  140.1986  163.5836 C.3     1  UNL1        0.0767
     13 C         140.6244  140.3261  162.5245 C.3     1  UNL1        0.0091
     14 C         140.7109  139.3085  161.4258 C.3     1  UNL1        0.0005
     15 C         139.7428  138.1633  161.3863 C.3     1  UNL1        0.0000
     16 C         138.6883  138.0358  162.4454 C.3     1  UNL1        0.0005
     17 C         138.6018  139.0534  163.5440 C.3     1  UNL1        0.0091
     18 C         143.7205  137.1865  170.5601 C.2     1  UNL1        0.0598
     19 C         143.5716  138.6463  170.8713 C.2     1  UNL1        0.0047
     20 O         143.9425  135.4509  172.4806 O.2     1  UNL1       -0.2681
     21 C         144.5764  136.3171  171.4328 C.2     1  UNL1        0.2679
     22 N         146.0661  136.3139  171.2577 N.am    1  UNL1       -0.1934
     23 O         146.9220  135.4445  172.1304 O.3     1  UNL1       -0.2949
     24 H         146.4821  136.8824  170.5699 H       1  UNL1        0.1825
     25 H         146.3590  134.9534  172.7490 H       1  UNL1        0.2414
@<TRIPOS>BOND
     1    20    21    2
     2    21    18    1
     3    18    19    2
     4    19     1    1
     5     1     2   ar
     6     2     3   ar
     7     3     4   ar
     8     4     5   ar
     9     5     6   ar
    10     5     7    1
    11     7     8    1
    12     8     9   am
    13     9    10    2
    14     9    12    1
    15    12    13    1
    16    13    14    1
    17    14    15    1
    18    15    16    1
    19    16    17    1
    20     8    11    1
    21    21    22   am
    22    22    23    1
    23     6     1   ar
    24    17    12    1
    25    11     4    1
    26    22    24    1
    27    23    25    1
@<TRIPOS>MOLECULE
*****
 25 27 0 0 0
SMALL
GASTEIGER

@<TRIPOS>ATOM
      1 C         142.3646  140.1488  167.0385 C.ar    1  UNL1       -0.0001
      2 C         143.1665  138.8816  167.0057 C.ar    1  UNL1       -0.0003
      3 C         143.6809  138.3531  165.6996 C.ar    1  UNL1       -0.0029
      4 C         143.3934  139.0918  164.4262 C.ar    1  UNL1       -0.0047
      5 C         142.5915  140.3590  164.4589 C.ar    1  UNL1       -0.0047
      6 C         142.0771  140.8875  165.7651 C.ar    1  UNL1       -0.0029
      7 C         142.4683  140.8661  163.0526 C.3     1  UNL1        0.1202
      8 N         143.1940  139.9123  162.1507 N.am    1  UNL1       -0.2713
      9 C         143.3251  140.0337  160.6613 C.2     1  UNL1        0.2256
     10 O         144.0850  138.9969  159.8883 O.2     1  UNL1       -0.2749
     11 C         143.7658  138.8157  162.9996 C.3     1  UNL1        0.1202
     12 C         142.6961  141.1918  159.9450 C.3     1  UNL1        0.0767
     13 C         143.5147  142.4057  159.6183 C.3     1  UNL1        0.0091
     14 C         142.8857  143.5638  158.9020 C.3     1  UNL1        0.0005
     15 C         141.4382  143.5081  158.5124 C.3     1  UNL1        0.0000
     16 C         140.6197  142.2944  158.8392 C.3     1  UNL1        0.0005
     17 C         141.2487  141.1362  159.5555 C.3     1  UNL1        0.0091
     18 C         140.4077  140.4929  168.7125 C.2     1  UNL1        0.0598
     19 C         141.8502  140.6773  168.3447 C.2     1  UNL1        0.0047
     20 O         138.4662  140.7833  170.4142 O.2     1  UNL1       -0.2681
     21 C         139.8933  141.0213  170.0187 C.2     1  UNL1        0.2679
     22 N         140.8062  141.7879  170.9293 N.am    1  UNL1       -0.1934
     23 O         140.2917  142.3164  172.2355 O.3     1  UNL1       -0.2949
     24 H         141.7429  141.9442  170.6697 H       1  UNL1        0.1825
     25 H         139.3572  142.0767  172.3357 H       1  UNL1        0.2414
@<TRIPOS>BOND
     1    20    21    2
     2    21    18    1
     3    18    19    2
     4    19     1    1
     5     1     2   ar
     6     2     3   ar
     7     3     4   ar
     8     4     5   ar
     9     5     6   ar
    10     5     7    1
    11     7     8    1
    12     8     9   am
    13     9    10    2
    14     9    12    1
    15    12    13    1
    16    13    14    1
    17    14    15    1
    18    15    16    1
    19    16    17    1
    20     8    11    1
    21    21    22   am
    22    22    23    1
    23     6     1   ar
    24    17    12    1
    25    11     4    1
    26    22    24    1
    27    23    25    1
