@<TRIPOS>MOLECULE
*****
 37 40 0 0 0
SMALL
GASTEIGER

@<TRIPOS>ATOM
      1 C         138.5861  140.3205  159.8528 C.ar    1  UNL1        0.0859
      2 C         139.0151  138.8858  159.7662 C.ar    1  UNL1        0.1060
      3 N         139.3407  138.1235  161.0163 N.ar    1  UNL1       -0.2288
      4 C         139.2373  138.7959  162.3531 C.ar    1  UNL1        0.1345
      5 C         138.8083  140.2306  162.4398 C.ar    1  UNL1        0.0492
      6 C         138.4827  140.9929  161.1896 C.ar    1  UNL1        0.0570
      7 C         136.9445  141.2899  156.3721 C.3     1  UNL1        0.1109
      8 N         137.2702  140.5277  157.6223 N.am    1  UNL1       -0.2991
      9 C         138.2604  141.0827  158.6027 C.2     1  UNL1        0.2486
     10 O         138.9251  142.4001  158.3329 O.2     1  UNL1       -0.2700
     11 H         136.8339  139.6630  157.7993 H       1  UNL1        0.1498
     12 N         139.5630  138.0336  163.6033 N.pl3   1  UNL1       -0.2833
     13 H         139.6210  137.0511  163.5797 H       1  UNL1        0.1550
     14 C         139.8001  138.7683  164.8894 C.ar    1  UNL1        0.1333
     15 C         138.7040  138.8698  165.9083 C.ar    1  UNL1        0.0357
     16 C         138.9412  139.6045  167.1944 C.ar    1  UNL1        0.0190
     17 C         140.2745  140.2376  167.4615 C.ar    1  UNL1        0.0675
     18 C         141.3706  140.1361  166.4427 C.ar    1  UNL1        0.1147
     19 N         141.1335  139.4014  165.1565 N.ar    1  UNL1       -0.2278
     20 N         140.5116  140.9723  168.7477 N.pl3   1  UNL1       -0.3015
     21 C         140.8185  140.2090  170.0019 C.3     1  UNL1        0.1231
     22 C         141.0556  140.9437  171.2879 C.3     1  UNL1        0.1636
     23 O         140.9859  142.4417  171.3198 O.3     1  UNL1       -0.3501
     24 C         140.6790  143.2051  170.0656 C.3     1  UNL1        0.1636
     25 C         140.4419  142.4704  168.7795 C.3     1  UNL1        0.1231
     26 N         138.0537  142.4277  161.2763 N.pl3   1  UNL1       -0.3113
     27 H         137.5596  142.8396  160.5311 H       1  UNL1        0.1523
     28 C         138.3774  143.2347  162.4985 C.ar    1  UNL1        0.0656
     29 C         137.5095  143.1309  163.7175 C.ar    1  UNL1        0.0159
     30 C         137.8333  143.9380  164.9397 C.ar    1  UNL1        0.0014
     31 C         139.0250  144.8489  164.9429 C.ar    1  UNL1        0.0014
     32 C         139.8929  144.9528  163.7239 C.ar    1  UNL1        0.0196
     33 C         139.5692  144.1457  162.5018 C.ar    1  UNL1        0.1190
     34 S         140.4371  144.2496  161.2828 S.O2    1  UNL1        0.0116
     35 C         141.3050  144.3534  160.0638 C.3     1  UNL1        0.1816
     36 O         139.5880  145.3766  160.7742 O.2     1  UNL1       -0.1685
     37 O         141.2863  143.1225  161.7914 O.2     1  UNL1       -0.1685
@<TRIPOS>BOND
     1     7     8    1
     2     8     9   am
     3     9    10    2
     4     9     1    1
     5     1     2   ar
     6     2     3   ar
     7     3     4   ar
     8     4    12    1
     9    12    14    1
    10    14    15   ar
    11    15    16   ar
    12    16    17   ar
    13    17    20    1
    14    20    21    1
    15    21    22    1
    16    22    23    1
    17    23    24    1
    18    24    25    1
    19    17    18   ar
    20    18    19   ar
    21     4     5   ar
    22     5     6   ar
    23     6    26    1
    24    26    28    1
    25    28    29   ar
    26    29    30   ar
    27    30    31   ar
    28    31    32   ar
    29    32    33   ar
    30    33    34    1
    31    34    35    1
    32    34    36    2
    33    34    37    2
    34     6     1   ar
    35    33    28   ar
    36    19    14   ar
    37    25    20    1
    38     8    11    1
    39    12    13    1
    40    26    27    1
@<TRIPOS>MOLECULE
*****
 37 40 0 0 0
SMALL
GASTEIGER

@<TRIPOS>ATOM
      1 C         143.5496  140.1335  160.3115 C.ar    1  UNL1        0.0859
      2 C         144.1090  138.7835  160.6498 C.ar    1  UNL1        0.1060
      3 N         143.5902  138.0337  161.8408 N.ar    1  UNL1       -0.2288
      4 C         142.5120  138.6338  162.6936 C.ar    1  UNL1        0.1345
      5 C         141.9526  139.9839  162.3553 C.ar    1  UNL1        0.0492
      6 C         142.4714  140.7337  161.1643 C.ar    1  UNL1        0.0570
      7 C         144.9658  140.8907  156.6823 C.3     1  UNL1        0.1109
      8 N         144.4470  140.1408  157.8734 N.am    1  UNL1       -0.2991
      9 C         144.0684  140.8834  159.1205 C.2     1  UNL1        0.2486
     10 O         144.2085  142.3757  159.1765 O.2     1  UNL1       -0.2700
     11 H         144.3551  139.1613  157.8366 H       1  UNL1        0.1498
     12 N         141.9932  137.8840  163.8847 N.pl3   1  UNL1       -0.2833
     13 H         141.7961  136.9221  163.8132 H       1  UNL1        0.1550
     14 C         141.7749  138.5997  165.1847 C.ar    1  UNL1        0.1333
     15 C         142.8849  138.6843  166.1900 C.ar    1  UNL1        0.0357
     16 C         142.6665  139.4000  167.4900 C.ar    1  UNL1        0.0190
     17 C         141.3381  140.0311  167.7847 C.ar    1  UNL1        0.0675
     18 C         140.2280  139.9466  166.7795 C.ar    1  UNL1        0.1147
     19 N         140.4464  139.2309  165.4794 N.ar    1  UNL1       -0.2278
     20 N         141.1197  140.7469  169.0848 N.pl3   1  UNL1       -0.3015
     21 C         139.9821  141.7142  169.2266 C.3     1  UNL1        0.1231
     22 C         139.7638  142.4299  170.5266 C.3     1  UNL1        0.1636
     23 O         140.6831  142.1782  171.6849 O.3     1  UNL1       -0.3501
     24 C         141.8207  141.2109  171.5431 C.3     1  UNL1        0.1636
     25 C         142.0390  140.4952  170.2431 C.3     1  UNL1        0.1231
     26 N         141.9120  142.0838  160.8260 N.pl3   1  UNL1       -0.3113
     27 H         141.4924  142.2371  159.9487 H       1  UNL1        0.1523
     28 C         141.9917  143.2003  161.8245 C.ar    1  UNL1        0.0656
     29 C         143.3280  143.7379  162.2433 C.ar    1  UNL1        0.0159
     30 C         143.4077  144.8545  163.2419 C.ar    1  UNL1        0.0014
     31 C         142.1512  145.4334  163.8215 C.ar    1  UNL1        0.0014
     32 C         140.8149  144.8958  163.4027 C.ar    1  UNL1        0.0196
     33 C         140.7352  143.7793  162.4042 C.ar    1  UNL1        0.1190
     34 S         139.3989  143.2417  161.9854 S.O2    1  UNL1        0.0116
     35 C         138.0627  142.7040  161.5666 C.3     1  UNL1        0.1816
     36 O         139.4422  142.2547  163.1142 O.2     1  UNL1       -0.1685
     37 O         139.3557  144.2286  160.8566 O.2     1  UNL1       -0.1685
@<TRIPOS>BOND
     1     7     8    1
     2     8     9   am
     3     9    10    2
     4     9     1    1
     5     1     2   ar
     6     2     3   ar
     7     3     4   ar
     8     4    12    1
     9    12    14    1
    10    14    15   ar
    11    15    16   ar
    12    16    17   ar
    13    17    20    1
    14    20    21    1
    15    21    22    1
    16    22    23    1
    17    23    24    1
    18    24    25    1
    19    17    18   ar
    20    18    19   ar
    21     4     5   ar
    22     5     6   ar
    23     6    26    1
    24    26    28    1
    25    28    29   ar
    26    29    30   ar
    27    30    31   ar
    28    31    32   ar
    29    32    33   ar
    30    33    34    1
    31    34    35    1
    32    34    36    2
    33    34    37    2
    34     6     1   ar
    35    33    28   ar
    36    19    14   ar
    37    25    20    1
    38     8    11    1
    39    12    13    1
    40    26    27    1
@<TRIPOS>MOLECULE
*****
 37 40 0 0 0
SMALL
GASTEIGER

@<TRIPOS>ATOM
      1 C         142.5698  142.5958  160.1184 C.ar    1  UNL1        0.0859
      2 C         144.0500  142.3659  160.1969 C.ar    1  UNL1        0.1060
      3 N         144.6299  141.5990  161.3483 N.ar    1  UNL1       -0.2288
      4 C         143.7296  141.0620  162.4211 C.ar    1  UNL1        0.1345
      5 C         142.2494  141.2918  162.3426 C.ar    1  UNL1        0.0492
      6 C         141.6695  142.0587  161.1913 C.ar    1  UNL1        0.0570
      7 C         141.8781  145.5263  157.5333 C.3     1  UNL1        0.1109
      8 N         142.4580  144.7594  158.6846 N.am    1  UNL1       -0.2991
      9 C         141.9899  143.3627  158.9671 C.2     1  UNL1        0.2486
     10 O         140.9420  142.7328  158.0982 O.2     1  UNL1       -0.2700
     11 H         143.1459  145.1729  159.2549 H       1  UNL1        0.1498
     12 N         144.3095  140.2951  163.5725 N.pl3   1  UNL1       -0.2833
     13 H         145.0869  139.7079  163.4311 H       1  UNL1        0.1550
     14 C         143.7048  140.4228  164.9392 C.ar    1  UNL1        0.1333
     15 C         143.2663  139.1962  165.6830 C.ar    1  UNL1        0.0357
     16 C         142.6616  139.3240  167.0498 C.ar    1  UNL1        0.0190
     17 C         142.4955  140.6783  167.6728 C.ar    1  UNL1        0.0675
     18 C         142.9341  141.9049  166.9291 C.ar    1  UNL1        0.1147
     19 N         143.5387  141.7772  165.5623 N.ar    1  UNL1       -0.2278
     20 N         141.8909  140.8060  169.0396 N.pl3   1  UNL1       -0.3015
     21 C         140.7769  139.8916  169.4553 C.3     1  UNL1        0.1231
     22 C         140.1723  140.0194  170.8221 C.3     1  UNL1        0.1636
     23 O         140.6816  141.0615  171.7731 O.3     1  UNL1       -0.3501
     24 C         141.7956  141.9759  171.3574 C.3     1  UNL1        0.1636
     25 C         142.4003  141.8481  169.9907 C.3     1  UNL1        0.1231
     26 N         140.1893  142.2886  161.1128 N.pl3   1  UNL1       -0.3113
     27 H         139.6986  142.0600  160.2905 H       1  UNL1        0.1523
     28 C         139.4568  142.8667  162.2872 C.ar    1  UNL1        0.0656
     29 C         139.6889  144.2935  162.6876 C.ar    1  UNL1        0.0159
     30 C         138.9564  144.8715  163.8621 C.ar    1  UNL1        0.0014
     31 C         137.9917  144.0228  164.6360 C.ar    1  UNL1        0.0014
     32 C         137.7595  142.5960  164.2356 C.ar    1  UNL1        0.0196
     33 C         138.4920  142.0179  163.0612 C.ar    1  UNL1        0.1190
     34 S         138.2599  140.5911  162.6608 S.O2    1  UNL1        0.0116
     35 C         138.0277  139.1643  162.2603 C.3     1  UNL1        0.1816
     36 O         137.3593  141.0488  161.5520 O.2     1  UNL1       -0.1685
     37 O         139.1605  140.1334  163.7695 O.2     1  UNL1       -0.1685
@<TRIPOS>BOND
     1     7     8    1
     2     8     9   am
     3     9    10    2
     4     9     1    1
     5     1     2   ar
     6     2     3   ar
     7     3     4   ar
     8     4    12    1
     9    12    14    1
    10    14    15   ar
    11    15    16   ar
    12    16    17   ar
    13    17    20    1
    14    20    21    1
    15    21    22    1
    16    22    23    1
    17    23    24    1
    18    24    25    1
    19    17    18   ar
    20    18    19   ar
    21     4     5   ar
    22     5     6   ar
    23     6    26    1
    24    26    28    1
    25    28    29   ar
    26    29    30   ar
    27    30    31   ar
    28    31    32   ar
    29    32    33   ar
    30    33    34    1
    31    34    35    1
    32    34    36    2
    33    34    37    2
    34     6     1   ar
    35    33    28   ar
    36    19    14   ar
    37    25    20    1
    38     8    11    1
    39    12    13    1
    40    26    27    1
@<TRIPOS>MOLECULE
*****
 37 40 0 0 0
SMALL
GASTEIGER

@<TRIPOS>ATOM
      1 C         141.7568  139.3862  160.0787 C.ar    1  UNL1        0.0859
      2 C         143.2117  139.6742  159.8546 C.ar    1  UNL1        0.1060
      3 N         144.0858  140.0636  161.0098 N.ar    1  UNL1       -0.2288
      4 C         143.5050  140.1648  162.3890 C.ar    1  UNL1        0.1345
      5 C         142.0501  139.8768  162.6131 C.ar    1  UNL1        0.0492
      6 C         141.1760  139.4874  161.4580 C.ar    1  UNL1        0.0570
      7 C         140.4951  137.6050  156.7643 C.3     1  UNL1        0.1109
      8 N         141.3692  137.9944  157.9194 N.am    1  UNL1       -0.2991
      9 C         140.8827  138.9968  158.9236 C.2     1  UNL1        0.2486
     10 O         139.5221  139.6099  158.7726 O.2     1  UNL1       -0.2700
     11 H         142.2622  137.5919  158.0185 H       1  UNL1        0.1498
     12 N         144.3791  140.5542  163.5442 N.pl3   1  UNL1       -0.2833
     13 H         145.3519  140.6392  163.4186 H       1  UNL1        0.1550
     14 C         143.7711  140.8141  164.8905 C.ar    1  UNL1        0.1333
     15 C         143.6313  142.2211  165.3914 C.ar    1  UNL1        0.0357
     16 C         143.0234  142.4810  166.7378 C.ar    1  UNL1        0.0190
     17 C         142.5551  141.3339  167.5834 C.ar    1  UNL1        0.0675
     18 C         142.6949  139.9269  167.0825 C.ar    1  UNL1        0.1147
     19 N         143.3029  139.6670  165.7361 N.ar    1  UNL1       -0.2278
     20 N         141.9471  141.5938  168.9298 N.pl3   1  UNL1       -0.3015
     21 C         142.4143  140.8187  170.1260 C.3     1  UNL1        0.1231
     22 C         141.8063  141.0787  171.4723 C.3     1  UNL1        0.1636
     23 O         140.7311  142.1137  171.6225 O.3     1  UNL1       -0.3501
     24 C         140.2639  142.8888  170.4263 C.3     1  UNL1        0.1636
     25 C         140.8719  142.6289  169.0800 C.3     1  UNL1        0.1231
     26 N         139.7211  139.1993  161.6821 N.pl3   1  UNL1       -0.3113
     27 H         139.1162  139.0925  160.9128 H       1  UNL1        0.1523
     28 C         139.1878  139.0741  163.0785 C.ar    1  UNL1        0.0656
     29 C         139.3203  137.7760  163.8184 C.ar    1  UNL1        0.0159
     30 C         138.7870  137.6508  165.2148 C.ar    1  UNL1        0.0014
     31 C         138.1211  138.8237  165.8713 C.ar    1  UNL1        0.0014
     32 C         137.9885  140.1217  165.1314 C.ar    1  UNL1        0.0196
     33 C         138.5218  140.2470  163.7351 C.ar    1  UNL1        0.1190
     34 S         138.3893  141.5451  162.9952 S.O2    1  UNL1        0.0116
     35 C         138.2567  142.8431  162.2553 C.3     1  UNL1        0.1816
     36 O         139.5243  142.1156  163.7928 O.2     1  UNL1       -0.1685
     37 O         137.2542  140.9745  162.1976 O.2     1  UNL1       -0.1685
@<TRIPOS>BOND
     1     7     8    1
     2     8     9   am
     3     9    10    2
     4     9     1    1
     5     1     2   ar
     6     2     3   ar
     7     3     4   ar
     8     4    12    1
     9    12    14    1
    10    14    15   ar
    11    15    16   ar
    12    16    17   ar
    13    17    20    1
    14    20    21    1
    15    21    22    1
    16    22    23    1
    17    23    24    1
    18    24    25    1
    19    17    18   ar
    20    18    19   ar
    21     4     5   ar
    22     5     6   ar
    23     6    26    1
    24    26    28    1
    25    28    29   ar
    26    29    30   ar
    27    30    31   ar
    28    31    32   ar
    29    32    33   ar
    30    33    34    1
    31    34    35    1
    32    34    36    2
    33    34    37    2
    34     6     1   ar
    35    33    28   ar
    36    19    14   ar
    37    25    20    1
    38     8    11    1
    39    12    13    1
    40    26    27    1
@<TRIPOS>MOLECULE
*****
 37 40 0 0 0
SMALL
GASTEIGER

@<TRIPOS>ATOM
      1 C         139.6475  140.0587  160.1176 C.ar    1  UNL1        0.0859
      2 C         139.6549  138.5603  160.1849 C.ar    1  UNL1        0.1060
      3 N         140.2235  137.8663  161.3870 N.ar    1  UNL1       -0.2288
      4 C         140.7847  138.6708  162.5218 C.ar    1  UNL1        0.1345
      5 C         140.7772  140.1693  162.4545 C.ar    1  UNL1        0.0492
      6 C         140.2086  140.8632  161.2524 C.ar    1  UNL1        0.0570
      7 C         137.1860  141.0164  157.1555 C.3     1  UNL1        0.1109
      8 N         137.7546  140.3225  158.3576 N.am    1  UNL1       -0.2991
      9 C         139.0788  140.7527  158.9154 C.2     1  UNL1        0.2486
     10 O         139.8345  141.8769  158.2712 O.2     1  UNL1       -0.2700
     11 H         137.2587  139.5846  158.7804 H       1  UNL1        0.1498
     12 N         141.3533  137.9769  163.7239 N.pl3   1  UNL1       -0.2833
     13 H         141.6788  137.0507  163.6495 H       1  UNL1        0.1550
     14 C         141.4259  138.6939  165.0394 C.ar    1  UNL1        0.1333
     15 C         142.7581  138.9657  165.6730 C.ar    1  UNL1        0.0357
     16 C         142.8307  139.6828  166.9885 C.ar    1  UNL1        0.0190
     17 C         141.5711  140.1281  167.6704 C.ar    1  UNL1        0.0675
     18 C         140.2389  139.8564  167.0369 C.ar    1  UNL1        0.1147
     19 N         140.1663  139.1393  165.7213 N.ar    1  UNL1       -0.2278
     20 N         141.6437  140.8452  168.9859 N.pl3   1  UNL1       -0.3015
     21 C         142.5123  142.0594  169.1313 C.3     1  UNL1        0.1231
     22 C         142.5849  142.7765  170.4468 C.3     1  UNL1        0.1636
     23 O         141.7889  142.2793  171.6169 O.3     1  UNL1       -0.3501
     24 C         140.9203  141.0651  171.4715 C.3     1  UNL1        0.1636
     25 C         140.8477  140.3480  170.1561 C.3     1  UNL1        0.1231
     26 N         140.2012  142.3618  161.1851 N.pl3   1  UNL1       -0.3113
     27 H         139.5343  142.8262  160.6295 H       1  UNL1        0.1523
     28 C         141.2097  143.1525  161.9645 C.ar    1  UNL1        0.0656
     29 C         142.6555  143.1239  161.5660 C.ar    1  UNL1        0.0159
     30 C         143.6641  143.9147  162.3455 C.ar    1  UNL1        0.0014
     31 C         143.2269  144.7341  163.5233 C.ar    1  UNL1        0.0014
     32 C         141.7810  144.7627  163.9218 C.ar    1  UNL1        0.0196
     33 C         140.7725  143.9719  163.1424 C.ar    1  UNL1        0.1190
     34 S         139.3267  144.0006  163.5409 S.O2    1  UNL1        0.0116
     35 C         137.8808  144.0292  163.9394 C.3     1  UNL1        0.1816
     36 O         139.5520  142.8235  164.4430 O.2     1  UNL1       -0.1685
     37 O         139.1013  145.1776  162.6388 O.2     1  UNL1       -0.1685
@<TRIPOS>BOND
     1     7     8    1
     2     8     9   am
     3     9    10    2
     4     9     1    1
     5     1     2   ar
     6     2     3   ar
     7     3     4   ar
     8     4    12    1
     9    12    14    1
    10    14    15   ar
    11    15    16   ar
    12    16    17   ar
    13    17    20    1
    14    20    21    1
    15    21    22    1
    16    22    23    1
    17    23    24    1
    18    24    25    1
    19    17    18   ar
    20    18    19   ar
    21     4     5   ar
    22     5     6   ar
    23     6    26    1
    24    26    28    1
    25    28    29   ar
    26    29    30   ar
    27    30    31   ar
    28    31    32   ar
    29    32    33   ar
    30    33    34    1
    31    34    35    1
    32    34    36    2
    33    34    37    2
    34     6     1   ar
    35    33    28   ar
    36    19    14   ar
    37    25    20    1
    38     8    11    1
    39    12    13    1
    40    26    27    1
@<TRIPOS>MOLECULE
*****
 37 40 0 0 0
SMALL
GASTEIGER

@<TRIPOS>ATOM
      1 C         142.8879  139.8315  160.0354 C.ar    1  UNL1        0.0859
      2 C         142.6241  138.3550  160.0192 C.ar    1  UNL1        0.1060
      3 N         142.2551  137.6450  161.2880 N.ar    1  UNL1       -0.2288
      4 C         142.1499  138.4115  162.5730 C.ar    1  UNL1        0.1345
      5 C         142.4137  139.8880  162.5892 C.ar    1  UNL1        0.0492
      6 C         142.7827  140.5980  161.3205 C.ar    1  UNL1        0.0570
      7 C         144.7995  140.7825  156.6901 C.3     1  UNL1        0.1109
      8 N         144.4305  140.0725  157.9589 N.am    1  UNL1       -0.2991
      9 C         143.2569  140.5415  158.7667 C.2     1  UNL1        0.2486
     10 O         142.4522  141.7204  158.3057 O.2     1  UNL1       -0.2700
     11 H         144.9587  139.2988  158.2614 H       1  UNL1        0.1498
     12 N         141.7810  137.7015  163.8418 N.pl3   1  UNL1       -0.2833
     13 H         141.6878  136.7214  163.8482 H       1  UNL1        0.1550
     14 C         141.5539  138.4847  165.1007 C.ar    1  UNL1        0.1333
     15 C         142.6992  138.7603  166.0295 C.ar    1  UNL1        0.0357
     16 C         142.4721  139.5435  167.2884 C.ar    1  UNL1        0.0190
     17 C         141.0998  140.0512  167.6186 C.ar    1  UNL1        0.0675
     18 C         139.9546  139.7756  166.6900 C.ar    1  UNL1        0.1147
     19 N         140.1816  138.9924  165.4309 N.ar    1  UNL1       -0.2278
     20 N         140.8728  140.8344  168.8777 N.pl3   1  UNL1       -0.3015
     21 C         140.4825  142.2807  168.8011 C.3     1  UNL1        0.1231
     22 C         140.2555  143.0639  170.0601 C.3     1  UNL1        0.1636
     23 O         140.4187  142.4008  171.3956 O.3     1  UNL1       -0.3501
     24 C         140.8089  140.9545  171.4722 C.3     1  UNL1        0.1636
     25 C         141.0360  140.1713  170.2132 C.3     1  UNL1        0.1231
     26 N         143.0465  142.0746  161.3368 N.pl3   1  UNL1       -0.3113
     27 H         143.9056  142.4248  161.0073 H       1  UNL1        0.1523
     28 C         142.0014  143.0175  161.8551 C.ar    1  UNL1        0.0656
     29 C         140.7870  143.3193  161.0279 C.ar    1  UNL1        0.0159
     30 C         139.7419  144.2622  161.5463 C.ar    1  UNL1        0.0014
     31 C         139.9112  144.9033  162.8918 C.ar    1  UNL1        0.0014
     32 C         141.1255  144.6015  163.7189 C.ar    1  UNL1        0.0196
     33 C         142.1706  143.6586  163.2006 C.ar    1  UNL1        0.1190
     34 S         143.3850  143.3568  164.0278 S.O2    1  UNL1        0.0116
     35 C         144.5994  143.0550  164.8549 C.3     1  UNL1        0.1816
     36 O         142.5504  142.5130  164.9452 O.2     1  UNL1       -0.1685
     37 O         144.2196  144.2005  163.1104 O.2     1  UNL1       -0.1685
@<TRIPOS>BOND
     1     7     8    1
     2     8     9   am
     3     9    10    2
     4     9     1    1
     5     1     2   ar
     6     2     3   ar
     7     3     4   ar
     8     4    12    1
     9    12    14    1
    10    14    15   ar
    11    15    16   ar
    12    16    17   ar
    13    17    20    1
    14    20    21    1
    15    21    22    1
    16    22    23    1
    17    23    24    1
    18    24    25    1
    19    17    18   ar
    20    18    19   ar
    21     4     5   ar
    22     5     6   ar
    23     6    26    1
    24    26    28    1
    25    28    29   ar
    26    29    30   ar
    27    30    31   ar
    28    31    32   ar
    29    32    33   ar
    30    33    34    1
    31    34    35    1
    32    34    36    2
    33    34    37    2
    34     6     1   ar
    35    33    28   ar
    36    19    14   ar
    37    25    20    1
    38     8    11    1
    39    12    13    1
    40    26    27    1
@<TRIPOS>MOLECULE
*****
 37 40 0 0 0
SMALL
GASTEIGER

@<TRIPOS>ATOM
      1 C         143.3447  142.6161  160.0629 C.ar    1  UNL1        0.0859
      2 C         144.7786  142.5376  160.4962 C.ar    1  UNL1        0.1060
      3 N         145.1442  141.7974  161.7486 N.ar    1  UNL1       -0.2288
      4 C         144.0759  141.1358  162.5677 C.ar    1  UNL1        0.1345
      5 C         142.6420  141.2142  162.1344 C.ar    1  UNL1        0.0492
      6 C         142.2764  141.9544  160.8820 C.ar    1  UNL1        0.0570
      7 C         142.9720  143.5258  156.2180 C.3     1  UNL1        0.1109
      8 N         143.3376  142.7857  157.4704 N.am    1  UNL1       -0.2991
      9 C         142.9791  143.3562  158.8105 C.2     1  UNL1        0.2486
     10 O         142.2550  144.6669  158.8982 O.2     1  UNL1       -0.2700
     11 H         143.8129  141.9254  157.4128 H       1  UNL1        0.1498
     12 N         144.4415  140.3956  163.8201 N.pl3   1  UNL1       -0.2833
     13 H         145.1405  139.7027  163.7961 H       1  UNL1        0.1550
     14 C         143.7421  140.7111  165.1090 C.ar    1  UNL1        0.1333
     15 C         143.6532  142.1304  165.5862 C.ar    1  UNL1        0.0357
     16 C         142.9537  142.4459  166.8751 C.ar    1  UNL1        0.0190
     17 C         142.3432  141.3421  167.6868 C.ar    1  UNL1        0.0675
     18 C         142.4321  139.9228  167.2096 C.ar    1  UNL1        0.1147
     19 N         143.1315  139.6073  165.9207 N.ar    1  UNL1       -0.2278
     20 N         141.6438  141.6576  168.9757 N.pl3   1  UNL1       -0.3015
     21 C         141.8197  140.7593  170.1640 C.3     1  UNL1        0.1231
     22 C         141.1203  141.0748  171.4528 C.3     1  UNL1        0.1636
     23 O         140.2449  142.2888  171.5534 O.3     1  UNL1       -0.3501
     24 C         140.0690  143.1871  170.3652 C.3     1  UNL1        0.1636
     25 C         140.7684  142.8716  169.0764 C.3     1  UNL1        0.1231
     26 N         140.8425  142.0329  160.4486 N.pl3   1  UNL1       -0.3113
     27 H         140.5389  142.7804  159.8845 H       1  UNL1        0.1523
     28 C         139.8711  140.9724  160.8749 C.ar    1  UNL1        0.0656
     29 C         140.0114  139.5732  160.3528 C.ar    1  UNL1        0.0159
     30 C         139.0400  138.5127  160.7790 C.ar    1  UNL1        0.0014
     31 C         137.9282  138.8513  161.7273 C.ar    1  UNL1        0.0014
     32 C         137.7879  140.2505  162.2494 C.ar    1  UNL1        0.0196
     33 C         138.7593  141.3110  161.8232 C.ar    1  UNL1        0.1190
     34 S         138.6189  142.7102  162.3453 S.O2    1  UNL1        0.0116
     35 C         138.4786  144.1094  162.8673 C.3     1  UNL1        0.1816
     36 O         139.5247  142.3731  163.4924 O.2     1  UNL1       -0.1685
     37 O         137.7131  143.0474  161.1982 O.2     1  UNL1       -0.1685
@<TRIPOS>BOND
     1     7     8    1
     2     8     9   am
     3     9    10    2
     4     9     1    1
     5     1     2   ar
     6     2     3   ar
     7     3     4   ar
     8     4    12    1
     9    12    14    1
    10    14    15   ar
    11    15    16   ar
    12    16    17   ar
    13    17    20    1
    14    20    21    1
    15    21    22    1
    16    22    23    1
    17    23    24    1
    18    24    25    1
    19    17    18   ar
    20    18    19   ar
    21     4     5   ar
    22     5     6   ar
    23     6    26    1
    24    26    28    1
    25    28    29   ar
    26    29    30   ar
    27    30    31   ar
    28    31    32   ar
    29    32    33   ar
    30    33    34    1
    31    34    35    1
    32    34    36    2
    33    34    37    2
    34     6     1   ar
    35    33    28   ar
    36    19    14   ar
    37    25    20    1
    38     8    11    1
    39    12    13    1
    40    26    27    1
@<TRIPOS>MOLECULE
*****
 37 40 0 0 0
SMALL
GASTEIGER

@<TRIPOS>ATOM
      1 C         142.8749  140.9059  159.4100 C.ar    1  UNL1        0.0859
      2 C         143.2941  142.3393  159.2710 C.ar    1  UNL1        0.1060
      3 N         143.5106  143.1795  160.4947 N.ar    1  UNL1       -0.2288
      4 C         143.3079  142.5861  161.8573 C.ar    1  UNL1        0.1345
      5 C         142.8887  141.1526  161.9963 C.ar    1  UNL1        0.0492
      6 C         142.6722  140.3125  160.7726 C.ar    1  UNL1        0.0570
      7 C         141.5013  139.6903  155.8907 C.3     1  UNL1        0.1109
      8 N         141.7178  140.5305  157.1143 N.am    1  UNL1       -0.2991
      9 C         142.6584  140.0657  158.1864 C.2     1  UNL1        0.2486
     10 O         143.3825  138.7609  158.0347 O.2     1  UNL1       -0.2700
     11 H         141.2425  141.3869  157.2138 H       1  UNL1        0.1498
     12 N         143.5244  143.4263  163.0809 N.pl3   1  UNL1       -0.2833
     13 H         144.1441  144.1907  163.0499 H       1  UNL1        0.1550
     14 C         142.7969  143.1018  164.3518 C.ar    1  UNL1        0.1333
     15 C         143.5400  142.5047  165.5100 C.ar    1  UNL1        0.0357
     16 C         142.8124  142.1802  166.7810 C.ar    1  UNL1        0.0190
     17 C         141.3417  142.4527  166.8938 C.ar    1  UNL1        0.0675
     18 C         140.5986  143.0498  165.7357 C.ar    1  UNL1        0.1147
     19 N         141.3261  143.3743  164.4647 N.ar    1  UNL1       -0.2278
     20 N         140.6141  142.1282  168.1648 N.pl3   1  UNL1       -0.3015
     21 C         140.5310  143.1470  169.2625 C.3     1  UNL1        0.1231
     22 C         139.8034  142.8225  170.5334 C.3     1  UNL1        0.1636
     23 O         139.1590  141.4791  170.7066 O.3     1  UNL1       -0.3501
     24 C         139.2421  140.4602  169.6089 C.3     1  UNL1        0.1636
     25 C         139.9697  140.7848  168.3380 C.3     1  UNL1        0.1231
     26 N         142.2530  138.8790  160.9117 N.pl3   1  UNL1       -0.3113
     27 H         142.6115  138.1993  160.2962 H       1  UNL1        0.1523
     28 C         141.2876  138.4809  161.9884 C.ar    1  UNL1        0.0656
     29 C         141.7816  137.7699  163.2133 C.ar    1  UNL1        0.0159
     30 C         140.8160  137.3719  164.2901 C.ar    1  UNL1        0.0014
     31 C         139.3566  137.6849  164.1420 C.ar    1  UNL1        0.0014
     32 C         138.8626  138.3959  162.9171 C.ar    1  UNL1        0.0196
     33 C         139.8280  138.7939  161.8403 C.ar    1  UNL1        0.1190
     34 S         139.3340  139.5050  160.6154 S.O2    1  UNL1        0.0116
     35 C         138.8400  140.2160  159.3905 C.3     1  UNL1        0.1816
     36 O         139.0978  140.7427  161.4292 O.2     1  UNL1       -0.1685
     37 O         139.5703  138.2672  159.8016 O.2     1  UNL1       -0.1685
@<TRIPOS>BOND
     1     7     8    1
     2     8     9   am
     3     9    10    2
     4     9     1    1
     5     1     2   ar
     6     2     3   ar
     7     3     4   ar
     8     4    12    1
     9    12    14    1
    10    14    15   ar
    11    15    16   ar
    12    16    17   ar
    13    17    20    1
    14    20    21    1
    15    21    22    1
    16    22    23    1
    17    23    24    1
    18    24    25    1
    19    17    18   ar
    20    18    19   ar
    21     4     5   ar
    22     5     6   ar
    23     6    26    1
    24    26    28    1
    25    28    29   ar
    26    29    30   ar
    27    30    31   ar
    28    31    32   ar
    29    32    33   ar
    30    33    34    1
    31    34    35    1
    32    34    36    2
    33    34    37    2
    34     6     1   ar
    35    33    28   ar
    36    19    14   ar
    37    25    20    1
    38     8    11    1
    39    12    13    1
    40    26    27    1
@<TRIPOS>MOLECULE
*****
 37 40 0 0 0
SMALL
GASTEIGER

@<TRIPOS>ATOM
      1 C         141.5986  141.7383  166.7016 C.ar    1  UNL1        0.0859
      2 C         142.9981  142.2682  166.8052 C.ar    1  UNL1        0.1060
      3 N         143.5967  143.0336  165.6625 N.ar    1  UNL1       -0.2288
      4 C         142.7960  143.2691  164.4162 C.ar    1  UNL1        0.1345
      5 C         141.3965  142.7392  164.3126 C.ar    1  UNL1        0.0492
      6 C         140.7979  141.9738  165.4553 C.ar    1  UNL1        0.0570
      7 C         139.4384  140.8818  169.9187 C.3     1  UNL1        0.1109
      8 N         140.0370  141.6472  168.7760 N.am    1  UNL1       -0.2991
      9 C         141.0000  140.9729  167.8443 C.2     1  UNL1        0.2486
     10 O         141.3642  139.5332  168.0553 O.2     1  UNL1       -0.2700
     11 H         139.7980  142.5921  168.6375 H       1  UNL1        0.1498
     12 N         143.3947  144.0345  163.2735 N.pl3   1  UNL1       -0.2833
     13 H         144.2966  144.4200  163.3581 H       1  UNL1        0.1550
     14 C         142.6192  144.2126  162.0020 C.ar    1  UNL1        0.1333
     15 C         142.9857  143.4196  160.7825 C.ar    1  UNL1        0.0357
     16 C         142.2102  143.5977  159.5110 C.ar    1  UNL1        0.0190
     17 C         141.0681  144.5687  159.4588 C.ar    1  UNL1        0.0675
     18 C         140.7015  145.3616  160.6781 C.ar    1  UNL1        0.1147
     19 N         141.4770  145.1836  161.9498 N.ar    1  UNL1       -0.2278
     20 N         140.2926  144.7468  158.1872 N.pl3   1  UNL1       -0.3015
     21 C         140.2658  146.0828  157.5059 C.3     1  UNL1        0.1231
     22 C         139.4904  146.2608  156.2343 C.3     1  UNL1        0.1636
     23 O         138.7417  145.1027  155.6441 O.3     1  UNL1       -0.3501
     24 C         138.7684  143.7667  156.3254 C.3     1  UNL1        0.1636
     25 C         139.5439  143.5887  157.5969 C.3     1  UNL1        0.1231
     26 N         139.3984  141.4440  165.3517 N.pl3   1  UNL1       -0.3113
     27 H         138.6574  141.9216  165.7900 H       1  UNL1        0.1523
     28 C         139.1277  140.1864  164.5802 C.ar    1  UNL1        0.0656
     29 C         139.4171  138.8505  165.1980 C.ar    1  UNL1        0.0159
     30 C         139.1464  137.5929  164.4264 C.ar    1  UNL1        0.0014
     31 C         138.5865  137.6712  163.0371 C.ar    1  UNL1        0.0014
     32 C         138.2972  139.0071  162.4192 C.ar    1  UNL1        0.0196
     33 C         138.5678  140.2647  163.1907 C.ar    1  UNL1        0.1190
     34 S         138.2785  141.6006  162.5729 S.O2    1  UNL1        0.0116
     35 C         137.9892  142.9364  161.9551 C.3     1  UNL1        0.1816
     36 O         136.9116  141.5902  163.1906 O.2     1  UNL1       -0.1685
     37 O         139.6454  141.6109  161.9552 O.2     1  UNL1       -0.1685
@<TRIPOS>BOND
     1     7     8    1
     2     8     9   am
     3     9    10    2
     4     9     1    1
     5     1     2   ar
     6     2     3   ar
     7     3     4   ar
     8     4    12    1
     9    12    14    1
    10    14    15   ar
    11    15    16   ar
    12    16    17   ar
    13    17    20    1
    14    20    21    1
    15    21    22    1
    16    22    23    1
    17    23    24    1
    18    24    25    1
    19    17    18   ar
    20    18    19   ar
    21     4     5   ar
    22     5     6   ar
    23     6    26    1
    24    26    28    1
    25    28    29   ar
    26    29    30   ar
    27    30    31   ar
    28    31    32   ar
    29    32    33   ar
    30    33    34    1
    31    34    35    1
    32    34    36    2
    33    34    37    2
    34     6     1   ar
    35    33    28   ar
    36    19    14   ar
    37    25    20    1
    38     8    11    1
    39    12    13    1
    40    26    27    1
