@<TRIPOS>MOLECULE
*****
 35 38 0 0 0
SMALL
GASTEIGER

@<TRIPOS>ATOM
      1 C         140.9866  144.0542  160.9649 C.ar    1  UNL1        0.0199
      2 C         140.0251  144.5590  161.9996 C.ar    1  UNL1        0.0017
      3 C         140.1682  144.1291  163.4295 C.ar    1  UNL1        0.0046
      4 C         141.2728  143.1945  163.8247 C.ar    1  UNL1        0.0537
      5 C         142.2343  142.6896  162.7901 C.ar    1  UNL1        0.0046
      6 C         142.0913  143.1195  161.3602 C.ar    1  UNL1        0.0017
      7 C         140.5576  145.3437  156.6750 C.ar    1  UNL1        0.0153
      8 C         141.6603  145.9079  157.5211 C.ar    1  UNL1        0.0960
      9 N         141.8033  145.4781  158.9510 N.ar    1  UNL1       -0.2419
     10 C         140.8436  144.4840  159.5349 C.ar    1  UNL1        0.1086
     11 C         139.7410  143.9198  158.6889 C.ar    1  UNL1        0.1574
     12 F         138.7813  142.9257  159.2728 F       1  UNL1       -0.2026
     13 C         139.5979  144.3496  157.2589 C.ar    1  UNL1        0.0298
     14 C         140.4146  145.7736  155.2450 C.3     1  UNL1        0.1008
     15 N         139.4018  150.0486  154.2712 N.3     1  UNL1       -0.2703
     16 C         140.3435  149.2817  153.3909 C.3     1  UNL1        0.0897
     17 C         140.6811  147.8567  153.7155 C.3     1  UNL1        0.0899
     18 N         140.0770  147.1986  154.9204 N.3     1  UNL1       -0.2665
     19 C         139.1353  147.9655  155.8007 C.3     1  UNL1        0.0899
     20 C         138.7977  149.3905  155.4761 C.3     1  UNL1        0.0897
     21 C         138.4012  152.3404  154.9756 C.3     1  UNL1        0.0188
     22 C         139.0642  151.4736  153.9466 C.3     1  UNL1        0.0722
     23 C         141.4158  142.7646  165.2547 C.2     1  UNL1        0.2495
     24 O         140.3715  143.1477  166.2611 O.2     1  UNL1       -0.2698
     25 N         142.6031  141.9517  165.6784 N.am    1  UNL1       -0.2794
     26 H         143.2885  141.7003  165.0179 H       1  UNL1        0.1552
     27 C         142.7461  141.5219  167.1083 C.ar    1  UNL1        0.0636
     28 C         143.3412  142.4590  168.1172 C.ar    1  UNL1        0.0159
     29 C         143.4842  142.0292  169.5472 C.ar    1  UNL1        0.0014
     30 C         143.0321  140.6623  169.9683 C.ar    1  UNL1        0.0013
     31 C         142.4370  139.7253  168.9595 C.ar    1  UNL1        0.0153
     32 C         142.2940  140.1551  167.5294 C.ar    1  UNL1        0.0552
     33 N         141.6989  139.2180  166.5206 N.pl3   1  UNL1       -0.3560
     34 H         141.4022  138.3209  166.7970 H       1  UNL1        0.1424
     35 H         141.6051  139.5001  165.5821 H       1  UNL1        0.1424
@<TRIPOS>BOND
     1    21    22    1
     2    22    15    1
     3    15    16    1
     4    16    17    1
     5    17    18    1
     6    18    14    1
     7    14     7    1
     8     7     8   ar
     9     8     9   ar
    10     9    10   ar
    11    10     1    1
    12     1     2   ar
    13     2     3   ar
    14     3     4   ar
    15     4    23    1
    16    23    24    2
    17    23    25   am
    18    25    27    1
    19    27    28   ar
    20    28    29   ar
    21    29    30   ar
    22    30    31   ar
    23    31    32   ar
    24    32    33    1
    25     4     5   ar
    26     5     6   ar
    27    10    11   ar
    28    11    12    1
    29    11    13   ar
    30    18    19    1
    31    19    20    1
    32    20    15    1
    33    13     7   ar
    34     6     1   ar
    35    32    27   ar
    36    25    26    1
    37    33    34    1
    38    33    35    1
@<TRIPOS>MOLECULE
*****
 35 38 0 0 0
SMALL
GASTEIGER

@<TRIPOS>ATOM
      1 C         140.9843  143.4173  161.7652 C.ar    1  UNL1        0.0199
      2 C         141.3929  142.0198  162.1257 C.ar    1  UNL1        0.0017
      3 C         141.5697  141.6380  163.5654 C.ar    1  UNL1        0.0046
      4 C         141.3379  142.6536  164.6447 C.ar    1  UNL1        0.0537
      5 C         140.9293  144.0511  164.2842 C.ar    1  UNL1        0.0046
      6 C         140.7525  144.4330  162.8444 C.ar    1  UNL1        0.0017
      7 C         140.4540  144.5632  157.4459 C.ar    1  UNL1        0.0153
      8 C         141.6154  145.1019  158.2276 C.ar    1  UNL1        0.0960
      9 N         141.7921  144.7199  159.6674 N.ar    1  UNL1       -0.2419
     10 C         140.8075  143.7993  160.3254 C.ar    1  UNL1        0.1086
     11 C         139.6462  143.2606  159.5437 C.ar    1  UNL1        0.1574
     12 F         138.6616  142.3400  160.2018 F       1  UNL1       -0.2026
     13 C         139.4694  143.6426  158.1039 C.ar    1  UNL1        0.0298
     14 C         140.2772  144.9451  156.0062 C.3     1  UNL1        0.1008
     15 N         139.3899  149.2169  154.9042 N.3     1  UNL1       -0.2703
     16 C         138.7896  148.6218  156.1433 C.3     1  UNL1        0.0897
     17 C         139.0854  147.1979  156.5107 C.3     1  UNL1        0.0899
     18 N         139.9815  146.3691  155.6389 N.3     1  UNL1       -0.2665
     19 C         140.5817  146.9642  154.3997 C.3     1  UNL1        0.0899
     20 C         140.2860  148.3881  154.0324 C.3     1  UNL1        0.0897
     21 C         138.5657  151.5884  155.5727 C.3     1  UNL1        0.0188
     22 C         139.0941  150.6409  154.5369 C.3     1  UNL1        0.0722
     23 C         141.5147  142.2716  166.0845 C.2     1  UNL1        0.2495
     24 O         142.8871  142.2413  166.6892 O.2     1  UNL1       -0.2698
     25 N         140.3192  141.9201  166.9194 N.am    1  UNL1       -0.2794
     26 H         139.4185  141.9400  166.5224 H       1  UNL1        0.1552
     27 C         140.4961  141.5381  168.3591 C.ar    1  UNL1        0.0636
     28 C         140.7873  140.1133  168.7268 C.ar    1  UNL1        0.0159
     29 C         140.9642  139.7314  170.1665 C.ar    1  UNL1        0.0014
     30 C         140.8498  140.7742  171.2386 C.ar    1  UNL1        0.0013
     31 C         140.5586  142.1990  170.8710 C.ar    1  UNL1        0.0153
     32 C         140.3817  142.5810  169.4312 C.ar    1  UNL1        0.0552
     33 N         140.0905  144.0058  169.0636 N.pl3   1  UNL1       -0.3560
     34 H         140.0154  144.6902  169.7672 H       1  UNL1        0.1424
     35 H         139.9744  144.2565  168.1186 H       1  UNL1        0.1424
@<TRIPOS>BOND
     1    21    22    1
     2    22    15    1
     3    15    16    1
     4    16    17    1
     5    17    18    1
     6    18    14    1
     7    14     7    1
     8     7     8   ar
     9     8     9   ar
    10     9    10   ar
    11    10     1    1
    12     1     2   ar
    13     2     3   ar
    14     3     4   ar
    15     4    23    1
    16    23    24    2
    17    23    25   am
    18    25    27    1
    19    27    28   ar
    20    28    29   ar
    21    29    30   ar
    22    30    31   ar
    23    31    32   ar
    24    32    33    1
    25     4     5   ar
    26     5     6   ar
    27    10    11   ar
    28    11    12    1
    29    11    13   ar
    30    18    19    1
    31    19    20    1
    32    20    15    1
    33    13     7   ar
    34     6     1   ar
    35    32    27   ar
    36    25    26    1
    37    33    34    1
    38    33    35    1
@<TRIPOS>MOLECULE
*****
 35 38 0 0 0
SMALL
GASTEIGER

@<TRIPOS>ATOM
      1 C         139.8270  143.1547  160.7424 C.ar    1  UNL1        0.0199
      2 C         139.4205  142.7499  159.3565 C.ar    1  UNL1        0.0017
      3 C         139.6373  143.6887  158.2070 C.ar    1  UNL1        0.0046
      4 C         140.2607  145.0324  158.4433 C.ar    1  UNL1        0.0537
      5 C         140.6673  145.4372  159.8292 C.ar    1  UNL1        0.0046
      6 C         140.4504  144.4984  160.9788 C.ar    1  UNL1        0.0017
      7 C         139.1766  140.3381  164.1912 C.ar    1  UNL1        0.0153
      8 C         140.2472  140.0515  163.1804 C.ar    1  UNL1        0.0960
      9 N         140.4640  140.9904  162.0309 N.ar    1  UNL1       -0.2419
     10 C         139.6102  142.2158  161.8920 C.ar    1  UNL1        0.1086
     11 C         138.5396  142.5024  162.9028 C.ar    1  UNL1        0.1574
     12 F         137.6858  143.7279  162.7639 F       1  UNL1       -0.2026
     13 C         138.3228  141.5636  164.0524 C.ar    1  UNL1        0.0298
     14 C         138.9598  139.3993  165.3408 C.3     1  UNL1        0.1008
     15 N         141.0732  140.1038  169.2507 N.3     1  UNL1       -0.2703
     16 C         139.5747  140.0539  169.2064 C.3     1  UNL1        0.0897
     17 C         138.8703  139.8191  167.9031 C.3     1  UNL1        0.0899
     18 N         139.6643  139.6341  166.6441 N.3     1  UNL1       -0.2665
     19 C         141.1628  139.6840  166.6883 C.3     1  UNL1        0.0899
     20 C         141.8672  139.9188  167.9916 C.3     1  UNL1        0.0897
     21 C         141.8477  141.7218  171.1301 C.3     1  UNL1        0.0188
     22 C         141.7777  140.3386  170.5539 C.3     1  UNL1        0.0722
     23 C         140.4776  145.9713  157.2937 C.2     1  UNL1        0.2495
     24 O         141.8652  146.2241  156.7833 O.2     1  UNL1       -0.2698
     25 N         139.3068  146.6573  156.6545 N.am    1  UNL1       -0.2794
     26 H         138.3960  146.4914  156.9895 H       1  UNL1        0.1552
     27 C         139.5237  147.5961  155.5050 C.ar    1  UNL1        0.0636
     28 C         140.2155  147.1150  154.2639 C.ar    1  UNL1        0.0159
     29 C         140.4324  148.0538  153.1144 C.ar    1  UNL1        0.0014
     30 C         139.9574  149.4737  153.2057 C.ar    1  UNL1        0.0013
     31 C         139.2656  149.9548  154.4466 C.ar    1  UNL1        0.0153
     32 C         139.0487  149.0160  155.5963 C.ar    1  UNL1        0.0552
     33 N         138.3569  149.4971  156.8372 N.pl3   1  UNL1       -0.3560
     34 H         138.0452  150.4290  156.8972 H       1  UNL1        0.1424
     35 H         138.2146  148.8809  157.5917 H       1  UNL1        0.1424
@<TRIPOS>BOND
     1    21    22    1
     2    22    15    1
     3    15    16    1
     4    16    17    1
     5    17    18    1
     6    18    14    1
     7    14     7    1
     8     7     8   ar
     9     8     9   ar
    10     9    10   ar
    11    10     1    1
    12     1     2   ar
    13     2     3   ar
    14     3     4   ar
    15     4    23    1
    16    23    24    2
    17    23    25   am
    18    25    27    1
    19    27    28   ar
    20    28    29   ar
    21    29    30   ar
    22    30    31   ar
    23    31    32   ar
    24    32    33    1
    25     4     5   ar
    26     5     6   ar
    27    10    11   ar
    28    11    12    1
    29    11    13   ar
    30    18    19    1
    31    19    20    1
    32    20    15    1
    33    13     7   ar
    34     6     1   ar
    35    32    27   ar
    36    25    26    1
    37    33    34    1
    38    33    35    1
@<TRIPOS>MOLECULE
*****
 35 38 0 0 0
SMALL
GASTEIGER

@<TRIPOS>ATOM
      1 C         140.8488  139.4223  161.2874 C.ar    1  UNL1        0.0199
      2 C         140.7700  138.5600  162.5123 C.ar    1  UNL1        0.0017
      3 C         140.5085  139.1822  163.8518 C.ar    1  UNL1        0.0046
      4 C         140.3257  140.6666  163.9665 C.ar    1  UNL1        0.0537
      5 C         140.4044  141.5288  162.7417 C.ar    1  UNL1        0.0046
      6 C         140.6660  140.9067  161.4021 C.ar    1  UNL1        0.0017
      7 C         141.6335  137.5559  157.2685 C.ar    1  UNL1        0.0153
      8 C         142.7481  137.6908  158.2634 C.ar    1  UNL1        0.0960
      9 N         142.4865  138.3130  159.6029 N.ar    1  UNL1       -0.2419
     10 C         141.1103  138.8001  159.9478 C.ar    1  UNL1        0.1086
     11 C         139.9958  138.6652  158.9530 C.ar    1  UNL1        0.1574
     12 F         138.6197  139.1523  159.2979 F       1  UNL1       -0.2026
     13 C         140.2574  138.0430  157.6134 C.ar    1  UNL1        0.0298
     14 C         141.8951  136.9337  155.9290 C.3     1  UNL1        0.1008
     15 N         143.0072  132.5824  155.6475 N.3     1  UNL1       -0.2703
     16 C         143.9915  133.5743  156.1928 C.3     1  UNL1        0.0897
     17 C         143.6208  135.0248  156.2866 C.3     1  UNL1        0.0899
     18 N         142.2658  135.4833  155.8352 N.3     1  UNL1       -0.2665
     19 C         141.2816  134.4914  155.2899 C.3     1  UNL1        0.0899
     20 C         141.6523  133.0409  155.1961 C.3     1  UNL1        0.0897
     21 C         144.8045  130.7087  155.7428 C.3     1  UNL1        0.0188
     22 C         143.3779  131.1320  155.5537 C.3     1  UNL1        0.0722
     23 C         140.0641  141.2888  165.3062 C.2     1  UNL1        0.2495
     24 O         139.1009  142.4322  165.4268 O.2     1  UNL1       -0.2698
     25 N         140.7658  140.7674  166.5251 N.am    1  UNL1       -0.2794
     26 H         141.3980  140.0169  166.4459 H       1  UNL1        0.1552
     27 C         140.5042  141.3896  167.8647 C.ar    1  UNL1        0.0636
     28 C         141.1890  142.6692  168.2439 C.ar    1  UNL1        0.0159
     29 C         140.9274  143.2913  169.5835 C.ar    1  UNL1        0.0014
     30 C         139.9811  142.6339  170.5438 C.ar    1  UNL1        0.0013
     31 C         139.2963  141.3544  170.1646 C.ar    1  UNL1        0.0153
     32 C         139.5579  140.7321  168.8250 C.ar    1  UNL1        0.0552
     33 N         138.8732  139.4526  168.4458 N.pl3   1  UNL1       -0.3560
     34 H         138.2521  139.0211  169.0762 H       1  UNL1        0.1424
     35 H         139.0448  139.0442  167.5666 H       1  UNL1        0.1424
@<TRIPOS>BOND
     1    21    22    1
     2    22    15    1
     3    15    16    1
     4    16    17    1
     5    17    18    1
     6    18    14    1
     7    14     7    1
     8     7     8   ar
     9     8     9   ar
    10     9    10   ar
    11    10     1    1
    12     1     2   ar
    13     2     3   ar
    14     3     4   ar
    15     4    23    1
    16    23    24    2
    17    23    25   am
    18    25    27    1
    19    27    28   ar
    20    28    29   ar
    21    29    30   ar
    22    30    31   ar
    23    31    32   ar
    24    32    33    1
    25     4     5   ar
    26     5     6   ar
    27    10    11   ar
    28    11    12    1
    29    11    13   ar
    30    18    19    1
    31    19    20    1
    32    20    15    1
    33    13     7   ar
    34     6     1   ar
    35    32    27   ar
    36    25    26    1
    37    33    34    1
    38    33    35    1
@<TRIPOS>MOLECULE
*****
 35 38 0 0 0
SMALL
GASTEIGER

@<TRIPOS>ATOM
      1 C         140.9460  138.8621  161.9660 C.ar    1  UNL1        0.0199
      2 C         140.6482  140.2826  162.3445 C.ar    1  UNL1        0.0017
      3 C         140.4746  140.6536  163.7875 C.ar    1  UNL1        0.0046
      4 C         140.5989  139.6041  164.8519 C.ar    1  UNL1        0.0537
      5 C         140.8966  138.1835  164.4734 C.ar    1  UNL1        0.0046
      6 C         141.0702  137.8125  163.0304 C.ar    1  UNL1        0.0017
      7 C         141.4668  137.7489  157.6370 C.ar    1  UNL1        0.0153
      8 C         140.1127  138.1343  158.1547 C.ar    1  UNL1        0.0960
      9 N         139.9391  138.5053  159.5977 N.ar    1  UNL1       -0.2419
     10 C         141.1196  138.4910  160.5230 C.ar    1  UNL1        0.1086
     11 C         142.4737  138.1057  160.0053 C.ar    1  UNL1        0.1574
     12 F         143.6542  138.0914  160.9306 F       1  UNL1       -0.2026
     13 C         142.6473  137.7347  158.5623 C.ar    1  UNL1        0.0298
     14 C         141.6403  137.3779  156.1940 C.3     1  UNL1        0.1008
     15 N         142.8893  133.2009  155.0794 N.3     1  UNL1       -0.2703
     16 C         141.5334  133.7082  154.6867 C.3     1  UNL1        0.0897
     17 C         141.1171  135.1006  155.0582 C.3     1  UNL1        0.0899
     18 N         142.0566  135.9856  155.8225 N.3     1  UNL1       -0.2665
     19 C         143.4125  135.4782  156.2152 C.3     1  UNL1        0.0899
     20 C         143.8288  134.0858  155.8436 C.3     1  UNL1        0.0897
     21 C         144.4010  131.1245  155.4707 C.3     1  UNL1        0.0188
     22 C         143.3056  131.8085  154.7078 C.3     1  UNL1        0.0722
     23 C         140.4252  139.9751  166.2950 C.2     1  UNL1        0.2495
     24 O         139.1998  139.5357  167.0401 O.2     1  UNL1       -0.2698
     25 N         141.4770  140.7855  166.9927 N.am    1  UNL1       -0.2794
     26 H         142.2813  141.0739  166.5037 H       1  UNL1        0.1552
     27 C         141.3034  141.1565  168.4357 C.ar    1  UNL1        0.0636
     28 C         140.4132  142.3033  168.8134 C.ar    1  UNL1        0.0159
     29 C         140.2395  142.6743  170.2563 C.ar    1  UNL1        0.0014
     30 C         140.9561  141.8986  171.3217 C.ar    1  UNL1        0.0013
     31 C         141.8463  140.7520  170.9440 C.ar    1  UNL1        0.0153
     32 C         142.0199  140.3809  169.5010 C.ar    1  UNL1        0.0552
     33 N         142.9101  139.2342  169.1234 N.pl3   1  UNL1       -0.3560
     34 H         143.3804  138.7251  169.8226 H       1  UNL1        0.1424
     35 H         143.0241  138.9907  168.1763 H       1  UNL1        0.1424
@<TRIPOS>BOND
     1    21    22    1
     2    22    15    1
     3    15    16    1
     4    16    17    1
     5    17    18    1
     6    18    14    1
     7    14     7    1
     8     7     8   ar
     9     8     9   ar
    10     9    10   ar
    11    10     1    1
    12     1     2   ar
    13     2     3   ar
    14     3     4   ar
    15     4    23    1
    16    23    24    2
    17    23    25   am
    18    25    27    1
    19    27    28   ar
    20    28    29   ar
    21    29    30   ar
    22    30    31   ar
    23    31    32   ar
    24    32    33    1
    25     4     5   ar
    26     5     6   ar
    27    10    11   ar
    28    11    12    1
    29    11    13   ar
    30    18    19    1
    31    19    20    1
    32    20    15    1
    33    13     7   ar
    34     6     1   ar
    35    32    27   ar
    36    25    26    1
    37    33    34    1
    38    33    35    1
@<TRIPOS>MOLECULE
*****
 35 38 0 0 0
SMALL
GASTEIGER

@<TRIPOS>ATOM
      1 C         142.9307  140.7801  159.8389 C.ar    1  UNL1        0.0199
      2 C         142.9405  139.8083  158.6964 C.ar    1  UNL1        0.0017
      3 C         143.8683  140.0226  157.5375 C.ar    1  UNL1        0.0046
      4 C         144.7863  141.2088  157.5210 C.ar    1  UNL1        0.0537
      5 C         144.7765  142.1807  158.6635 C.ar    1  UNL1        0.0046
      6 C         143.8487  141.9663  159.8225 C.ar    1  UNL1        0.0017
      7 C         140.1472  140.1372  163.3159 C.ar    1  UNL1        0.0153
      8 C         139.7378  141.0306  162.1826 C.ar    1  UNL1        0.0960
      9 N         140.6656  141.2449  161.0237 N.ar    1  UNL1       -0.2419
     10 C         142.0029  140.5658  160.9980 C.ar    1  UNL1        0.1086
     11 C         142.4123  139.6725  162.1312 C.ar    1  UNL1        0.1574
     12 F         143.7495  138.9934  162.1055 F       1  UNL1       -0.2026
     13 C         141.4845  139.4582  163.2902 C.ar    1  UNL1        0.0298
     14 C         139.2194  139.9230  164.4749 C.3     1  UNL1        0.1008
     15 N         140.1422  141.7792  168.4690 N.3     1  UNL1       -0.2703
     16 C         139.6670  140.3585  168.3940 C.3     1  UNL1        0.0897
     17 C         139.3594  139.7398  167.0627 C.3     1  UNL1        0.0899
     18 N         139.5270  140.5417  165.8062 N.3     1  UNL1       -0.2665
     19 C         140.0022  141.9625  165.8812 C.3     1  UNL1        0.0899
     20 C         140.3098  142.5812  167.2125 C.3     1  UNL1        0.0897
     21 C         140.5583  143.8886  169.9275 C.3     1  UNL1        0.0188
     22 C         140.4498  142.3980  169.8003 C.3     1  UNL1        0.0722
     23 C         145.7141  141.4231  156.3620 C.2     1  UNL1        0.2495
     24 O         145.5073  140.6633  155.0853 O.2     1  UNL1       -0.2698
     25 N         146.8487  142.3972  156.4797 N.am    1  UNL1       -0.2794
     26 H         146.9844  142.8959  157.3176 H       1  UNL1        0.1552
     27 C         147.7764  142.6114  155.3207 C.ar    1  UNL1        0.0636
     28 C         149.0560  141.8337  155.2305 C.ar    1  UNL1        0.0159
     29 C         149.9837  142.0480  154.0715 C.ar    1  UNL1        0.0014
     30 C         149.6320  143.0399  153.0027 C.ar    1  UNL1        0.0013
     31 C         148.3526  143.8176  153.0928 C.ar    1  UNL1        0.0153
     32 C         147.4248  143.6034  154.2519 C.ar    1  UNL1        0.0552
     33 N         146.1453  144.3811  154.3421 N.pl3   1  UNL1       -0.3560
     34 H         145.9145  145.0321  153.6406 H       1  UNL1        0.1424
     35 H         145.5364  144.2405  155.1028 H       1  UNL1        0.1424
@<TRIPOS>BOND
     1    21    22    1
     2    22    15    1
     3    15    16    1
     4    16    17    1
     5    17    18    1
     6    18    14    1
     7    14     7    1
     8     7     8   ar
     9     8     9   ar
    10     9    10   ar
    11    10     1    1
    12     1     2   ar
    13     2     3   ar
    14     3     4   ar
    15     4    23    1
    16    23    24    2
    17    23    25   am
    18    25    27    1
    19    27    28   ar
    20    28    29   ar
    21    29    30   ar
    22    30    31   ar
    23    31    32   ar
    24    32    33    1
    25     4     5   ar
    26     5     6   ar
    27    10    11   ar
    28    11    12    1
    29    11    13   ar
    30    18    19    1
    31    19    20    1
    32    20    15    1
    33    13     7   ar
    34     6     1   ar
    35    32    27   ar
    36    25    26    1
    37    33    34    1
    38    33    35    1
@<TRIPOS>MOLECULE
*****
 35 38 0 0 0
SMALL
GASTEIGER

@<TRIPOS>ATOM
      1 C         140.9224  137.7988  156.8102 C.ar    1  UNL1        0.0199
      2 C         142.1726  137.2069  157.3902 C.ar    1  UNL1        0.0017
      3 C         142.6581  135.8686  156.9177 C.ar    1  UNL1        0.0046
      4 C         141.8933  135.1223  155.8650 C.ar    1  UNL1        0.0537
      5 C         140.6431  135.7141  155.2850 C.ar    1  UNL1        0.0046
      6 C         140.1576  137.0524  155.7576 C.ar    1  UNL1        0.0017
      7 C         139.4658  141.8136  158.2278 C.ar    1  UNL1        0.0153
      8 C         138.5492  140.6268  158.2664 C.ar    1  UNL1        0.0960
      9 N         139.0348  139.2885  157.7939 N.ar    1  UNL1       -0.2419
     10 C         140.4369  139.1371  157.2827 C.ar    1  UNL1        0.1086
     11 C         141.3534  140.3238  157.2441 C.ar    1  UNL1        0.1574
     12 F         142.7554  140.1724  156.7330 F       1  UNL1       -0.2026
     13 C         140.8678  141.6622  157.7167 C.ar    1  UNL1        0.0298
     14 C         138.9802  143.1518  158.7004 C.3     1  UNL1        0.1008
     15 N         139.5543  144.3655  162.9954 N.3     1  UNL1       -0.2703
     16 C         138.5890  143.2713  162.6479 C.3     1  UNL1        0.0897
     17 C         138.3977  142.8668  161.2162 C.3     1  UNL1        0.0899
     18 N         139.1716  143.5564  160.1321 N.3     1  UNL1       -0.2665
     19 C         140.1369  144.6506  160.4796 C.3     1  UNL1        0.0899
     20 C         140.3283  145.0552  161.9113 C.3     1  UNL1        0.0897
     21 C         138.5690  144.8206  165.3559 C.3     1  UNL1        0.0188
     22 C         139.7457  144.7701  164.4271 C.3     1  UNL1        0.0722
     23 C         142.3789  133.7839  155.3925 C.2     1  UNL1        0.2495
     24 O         142.7470  133.5855  153.9520 O.2     1  UNL1       -0.2698
     25 N         142.4962  132.6441  156.3604 N.am    1  UNL1       -0.2794
     26 H         142.2546  132.7743  157.3059 H       1  UNL1        0.1552
     27 C         142.9817  131.3059  155.8878 C.ar    1  UNL1        0.0636
     28 C         142.0060  130.3006  155.3516 C.ar    1  UNL1        0.0159
     29 C         142.4915  128.9623  154.8790 C.ar    1  UNL1        0.0014
     30 C         143.9527  128.6293  154.9426 C.ar    1  UNL1        0.0013
     31 C         144.9284  129.6346  155.4788 C.ar    1  UNL1        0.0153
     32 C         144.4429  130.9729  155.9514 C.ar    1  UNL1        0.0552
     33 N         145.4186  131.9781  156.4876 N.pl3   1  UNL1       -0.3560
     34 H         146.3776  131.7595  156.5294 H       1  UNL1        0.1424
     35 H         145.0999  132.8565  156.7978 H       1  UNL1        0.1424
@<TRIPOS>BOND
     1    21    22    1
     2    22    15    1
     3    15    16    1
     4    16    17    1
     5    17    18    1
     6    18    14    1
     7    14     7    1
     8     7     8   ar
     9     8     9   ar
    10     9    10   ar
    11    10     1    1
    12     1     2   ar
    13     2     3   ar
    14     3     4   ar
    15     4    23    1
    16    23    24    2
    17    23    25   am
    18    25    27    1
    19    27    28   ar
    20    28    29   ar
    21    29    30   ar
    22    30    31   ar
    23    31    32   ar
    24    32    33    1
    25     4     5   ar
    26     5     6   ar
    27    10    11   ar
    28    11    12    1
    29    11    13   ar
    30    18    19    1
    31    19    20    1
    32    20    15    1
    33    13     7   ar
    34     6     1   ar
    35    32    27   ar
    36    25    26    1
    37    33    34    1
    38    33    35    1
@<TRIPOS>MOLECULE
*****
 35 38 0 0 0
SMALL
GASTEIGER

@<TRIPOS>ATOM
      1 C         140.6670  139.0089  160.7151 C.ar    1  UNL1        0.0199
      2 C         141.0479  140.4231  161.0387 C.ar    1  UNL1        0.0017
      3 C         140.7606  140.9845  162.3996 C.ar    1  UNL1        0.0046
      4 C         140.0924  140.1315  163.4370 C.ar    1  UNL1        0.0537
      5 C         139.7115  138.7173  163.1134 C.ar    1  UNL1        0.0046
      6 C         139.9988  138.1559  161.7524 C.ar    1  UNL1        0.0017
      7 C         141.5289  137.3246  156.6320 C.ar    1  UNL1        0.0153
      8 C         140.1120  137.5747  157.0564 C.ar    1  UNL1        0.0960
      9 N         139.8248  138.1361  158.4174 N.ar    1  UNL1       -0.2419
     10 C         140.9543  138.4474  159.3540 C.ar    1  UNL1        0.1086
     11 C         142.3711  138.1973  158.9297 C.ar    1  UNL1        0.1574
     12 F         143.5006  138.5086  159.8663 F       1  UNL1       -0.2026
     13 C         142.6584  137.6359  157.5686 C.ar    1  UNL1        0.0298
     14 C         141.8161  136.7632  155.2710 C.3     1  UNL1        0.1008
     15 N         143.2219  132.5100  154.8423 N.3     1  UNL1       -0.2703
     16 C         143.4660  133.2553  156.1209 C.3     1  UNL1        0.0897
     17 C         142.9974  134.6731  156.2638 C.3     1  UNL1        0.0899
     18 N         142.2847  135.3455  155.1281 N.3     1  UNL1       -0.2665
     19 C         142.0406  134.6002  153.8495 C.3     1  UNL1        0.0899
     20 C         142.5092  133.1824  153.7066 C.3     1  UNL1        0.0897
     21 C         144.8251  130.5889  155.5415 C.3     1  UNL1        0.0188
     22 C         143.6905  131.0923  154.6994 C.3     1  UNL1        0.0722
     23 C         139.8051  140.6930  164.7980 C.2     1  UNL1        0.2495
     24 O         138.8162  141.8098  164.9551 O.2     1  UNL1       -0.2698
     25 N         140.5066  140.1375  166.0018 N.am    1  UNL1       -0.2794
     26 H         141.1557  139.4045  165.8987 H       1  UNL1        0.1552
     27 C         140.2193  140.6989  167.3628 C.ar    1  UNL1        0.0636
     28 C         139.4269  139.8975  168.3527 C.ar    1  UNL1        0.0159
     29 C         139.1396  140.4590  169.7137 C.ar    1  UNL1        0.0014
     30 C         139.6446  141.8218  170.0848 C.ar    1  UNL1        0.0013
     31 C         140.4370  142.6232  169.0949 C.ar    1  UNL1        0.0153
     32 C         140.7243  142.0617  167.7339 C.ar    1  UNL1        0.0552
     33 N         141.5167  142.8631  166.7440 N.pl3   1  UNL1       -0.3560
     34 H         141.8482  143.7576  166.9876 H       1  UNL1        0.1424
     35 H         141.7053  142.4947  165.8507 H       1  UNL1        0.1424
@<TRIPOS>BOND
     1    21    22    1
     2    22    15    1
     3    15    16    1
     4    16    17    1
     5    17    18    1
     6    18    14    1
     7    14     7    1
     8     7     8   ar
     9     8     9   ar
    10     9    10   ar
    11    10     1    1
    12     1     2   ar
    13     2     3   ar
    14     3     4   ar
    15     4    23    1
    16    23    24    2
    17    23    25   am
    18    25    27    1
    19    27    28   ar
    20    28    29   ar
    21    29    30   ar
    22    30    31   ar
    23    31    32   ar
    24    32    33    1
    25     4     5   ar
    26     5     6   ar
    27    10    11   ar
    28    11    12    1
    29    11    13   ar
    30    18    19    1
    31    19    20    1
    32    20    15    1
    33    13     7   ar
    34     6     1   ar
    35    32    27   ar
    36    25    26    1
    37    33    34    1
    38    33    35    1
@<TRIPOS>MOLECULE
*****
 35 38 0 0 0
SMALL
GASTEIGER

@<TRIPOS>ATOM
      1 C         142.6597  137.9928  158.1369 C.ar    1  UNL1        0.0199
      2 C         142.6116  137.4379  159.5296 C.ar    1  UNL1        0.0017
      3 C         142.7250  138.3588  160.7081 C.ar    1  UNL1        0.0046
      4 C         142.8865  139.8346  160.4940 C.ar    1  UNL1        0.0537
      5 C         142.9346  140.3895  159.1012 C.ar    1  UNL1        0.0046
      6 C         142.8212  139.4686  157.9227 C.ar    1  UNL1        0.0017
      7 C         142.3196  135.2300  154.6010 C.ar    1  UNL1        0.0153
      8 C         143.6713  135.6045  155.1331 C.ar    1  UNL1        0.0960
      9 N         143.7846  136.5253  156.3116 N.ar    1  UNL1       -0.2419
     10 C         142.5463  137.0718  156.9583 C.ar    1  UNL1        0.1086
     11 C         141.1948  136.6974  156.4263 C.ar    1  UNL1        0.1574
     12 F         139.9565  137.2439  157.0729 F       1  UNL1       -0.2026
     13 C         141.0814  135.7765  155.2477 C.ar    1  UNL1        0.0298
     14 C         142.2063  134.3091  153.4225 C.3     1  UNL1        0.1008
     15 N         140.3901  130.2228  153.9263 N.3     1  UNL1       -0.2703
     16 C         140.1285  131.0111  152.6773 C.3     1  UNL1        0.0897
     17 C         140.7339  132.3732  152.5093 C.3     1  UNL1        0.0899
     18 N         141.6009  132.9470  153.5904 N.3     1  UNL1       -0.2665
     19 C         141.8626  132.1588  154.8395 C.3     1  UNL1        0.0899
     20 C         141.2572  130.7967  155.0074 C.3     1  UNL1        0.0897
     21 C         139.7169  128.2327  155.4547 C.3     1  UNL1        0.0188
     22 C         139.7848  128.8608  154.0943 C.3     1  UNL1        0.0722
     23 C         142.9999  140.7556  161.6726 C.2     1  UNL1        0.2495
     24 O         142.2316  140.4653  162.9278 O.2     1  UNL1       -0.2698
     25 N         143.8815  141.9667  161.5960 N.am    1  UNL1       -0.2794
     26 H         144.3857  142.1572  160.7721 H       1  UNL1        0.1552
     27 C         143.9948  142.8875  162.7746 C.ar    1  UNL1        0.0636
     28 C         144.7069  142.4345  164.0146 C.ar    1  UNL1        0.0159
     29 C         144.8202  143.3553  165.1932 C.ar    1  UNL1        0.0014
     30 C         144.2215  144.7293  165.1318 C.ar    1  UNL1        0.0013
     31 C         143.5095  145.1824  163.8919 C.ar    1  UNL1        0.0153
     32 C         143.3961  144.2615  162.7132 C.ar    1  UNL1        0.0552
     33 N         142.6840  144.7146  161.4732 N.pl3   1  UNL1       -0.3560
     34 H         142.2911  145.6164  161.4329 H       1  UNL1        0.1424
     35 H         142.6096  144.1102  160.6996 H       1  UNL1        0.1424
@<TRIPOS>BOND
     1    21    22    1
     2    22    15    1
     3    15    16    1
     4    16    17    1
     5    17    18    1
     6    18    14    1
     7    14     7    1
     8     7     8   ar
     9     8     9   ar
    10     9    10   ar
    11    10     1    1
    12     1     2   ar
    13     2     3   ar
    14     3     4   ar
    15     4    23    1
    16    23    24    2
    17    23    25   am
    18    25    27    1
    19    27    28   ar
    20    28    29   ar
    21    29    30   ar
    22    30    31   ar
    23    31    32   ar
    24    32    33    1
    25     4     5   ar
    26     5     6   ar
    27    10    11   ar
    28    11    12    1
    29    11    13   ar
    30    18    19    1
    31    19    20    1
    32    20    15    1
    33    13     7   ar
    34     6     1   ar
    35    32    27   ar
    36    25    26    1
    37    33    34    1
    38    33    35    1
