@<TRIPOS>MOLECULE
*****
 26 28 0 0 0
SMALL
GASTEIGER

@<TRIPOS>ATOM
      1 C         139.1211  140.3655  165.6362 C.ar    1  UNL1       -0.0209
      2 C         139.8963  140.7291  166.8678 C.ar    1  UNL1       -0.0042
      3 C         140.6808  142.0069  166.9101 C.ar    1  UNL1        0.0010
      4 C         140.6901  142.9211  165.7209 C.ar    1  UNL1        0.0187
      5 C         139.9149  142.5574  164.4894 C.ar    1  UNL1        0.1106
      6 C         139.1304  141.2796  164.4470 C.ar    1  UNL1        0.0145
      7 C         141.4560  142.3706  168.1418 C.ar    1  UNL1        0.0000
      8 C         140.8271  143.2316  169.1968 C.ar    1  UNL1        0.0000
      9 C         141.6022  143.5952  170.4284 C.ar    1  UNL1        0.0000
     10 C         143.0064  143.0979  170.6050 C.ar    1  UNL1        0.0000
     11 C         143.6353  142.2369  169.5500 C.ar    1  UNL1        0.0000
     12 C         142.8600  141.8732  168.3183 C.ar    1  UNL1        0.0000
     13 S         139.9241  143.4715  163.3001 S.O2    1  UNL1        0.0346
     14 O         139.9347  142.2823  162.3860 O.2     1  UNL1       -0.1637
     15 O         139.9136  144.6608  164.2142 O.2     1  UNL1       -0.1637
     16 C         139.9334  144.3857  162.1109 C.ar    1  UNL1        0.1599
     17 C         139.3478  145.7655  162.0549 C.ar    1  UNL1        0.1244
     18 N         139.5824  146.3131  160.6783 N.ar    1  UNL1       -0.2384
     19 C         140.3130  145.2717  159.8835 C.ar    1  UNL1        0.1052
     20 S         140.5299  144.0805  160.7689 S.2     1  UNL1       -0.0508
     21 C         140.7499  145.3991  158.4542 C.3     1  UNL1        0.1186
     22 N         142.1383  145.8676  158.1333 N.3     1  UNL1       -0.3157
     23 H         142.2477  146.8366  158.4323 H       1  UNL1        0.1192
     24 H         142.2952  145.8023  157.1275 H       1  UNL1        0.1192
     25 C         137.7398  138.5319  166.8528 C.3     1  UNL1        0.0050
     26 C         138.3366  139.0877  165.5939 C.3     1  UNL1        0.0264
@<TRIPOS>BOND
     1    25    26    1
     2    26     1    1
     3     1     2   ar
     4     2     3   ar
     5     3     7    1
     6     7     8   ar
     7     8     9   ar
     8     9    10   ar
     9    10    11   ar
    10    11    12   ar
    11     3     4   ar
    12     4     5   ar
    13     5    13    1
    14    13    14    2
    15    13    15    2
    16    13    16    1
    17    16    17   ar
    18    17    18   ar
    19    18    19   ar
    20    19    21    1
    21    21    22    1
    22    19    20   ar
    23     5     6   ar
    24     6     1   ar
    25    12     7   ar
    26    20    16   ar
    27    22    23    1
    28    22    24    1
@<TRIPOS>MOLECULE
*****
 26 28 0 0 0
SMALL
GASTEIGER

@<TRIPOS>ATOM
      1 C         138.6110  139.3155  166.2910 C.ar    1  UNL1       -0.0209
      2 C         139.4481  139.9200  167.3790 C.ar    1  UNL1       -0.0042
      3 C         140.2418  141.1643  167.1111 C.ar    1  UNL1        0.0010
      4 C         140.1984  141.8041  165.7551 C.ar    1  UNL1        0.0187
      5 C         139.3613  141.1996  164.6671 C.ar    1  UNL1        0.1106
      6 C         138.5676  139.9553  164.9350 C.ar    1  UNL1        0.0145
      7 C         141.0789  141.7687  168.1992 C.ar    1  UNL1        0.0000
      8 C         142.4411  141.2140  168.4933 C.ar    1  UNL1        0.0000
      9 C         143.2782  141.8184  169.5814 C.ar    1  UNL1        0.0000
     10 C         142.7530  142.9776  170.3754 C.ar    1  UNL1        0.0000
     11 C         141.3908  143.5324  170.0814 C.ar    1  UNL1        0.0000
     12 C         140.5537  142.9279  168.9932 C.ar    1  UNL1        0.0000
     13 S         139.3179  141.8394  163.3110 S.O2    1  UNL1        0.0346
     14 O         140.5942  142.5672  163.6135 O.2     1  UNL1       -0.1637
     15 O         138.0417  141.1117  163.0086 O.2     1  UNL1       -0.1637
     16 C         139.2745  142.4792  161.9550 C.ar    1  UNL1        0.1599
     17 C         138.2484  142.2224  160.8914 C.ar    1  UNL1        0.1244
     18 N         138.5892  143.0726  159.7036 N.ar    1  UNL1       -0.2384
     19 C         139.8260  143.8548  160.0331 C.ar    1  UNL1        0.1052
     20 S         140.2495  143.4881  161.4245 S.2     1  UNL1       -0.0508
     21 C         140.5178  144.8322  159.1297 C.3     1  UNL1        0.1186
     22 N         141.7316  145.5699  159.6119 N.3     1  UNL1       -0.3157
     23 H         141.4687  146.1968  160.3723 H       1  UNL1        0.1192
     24 H         142.1266  146.1132  158.8444 H       1  UNL1        0.1192
     25 C         136.9726  137.9719  167.7945 C.3     1  UNL1        0.0050
     26 C         137.8173  138.0712  166.5589 C.3     1  UNL1        0.0264
@<TRIPOS>BOND
     1    25    26    1
     2    26     1    1
     3     1     2   ar
     4     2     3   ar
     5     3     7    1
     6     7     8   ar
     7     8     9   ar
     8     9    10   ar
     9    10    11   ar
    10    11    12   ar
    11     3     4   ar
    12     4     5   ar
    13     5    13    1
    14    13    14    2
    15    13    15    2
    16    13    16    1
    17    16    17   ar
    18    17    18   ar
    19    18    19   ar
    20    19    21    1
    21    21    22    1
    22    19    20   ar
    23     5     6   ar
    24     6     1   ar
    25    12     7   ar
    26    20    16   ar
    27    22    23    1
    28    22    24    1
@<TRIPOS>MOLECULE
*****
 26 28 0 0 0
SMALL
GASTEIGER

@<TRIPOS>ATOM
      1 C         142.8105  140.2527  164.9043 C.ar    1  UNL1       -0.0209
      2 C         142.2156  140.4484  166.2672 C.ar    1  UNL1       -0.0042
      3 C         141.2662  141.5829  166.5153 C.ar    1  UNL1        0.0010
      4 C         140.9118  142.5218  165.4005 C.ar    1  UNL1        0.0187
      5 C         141.5068  142.3261  164.0375 C.ar    1  UNL1        0.1106
      6 C         142.4561  141.1915  163.7894 C.ar    1  UNL1        0.0145
      7 C         140.6713  141.7786  167.8784 C.ar    1  UNL1        0.0000
      8 C         140.8337  143.0911  168.5862 C.ar    1  UNL1        0.0000
      9 C         140.2388  143.2869  169.9491 C.ar    1  UNL1        0.0000
     10 C         139.4814  142.1701  170.6044 C.ar    1  UNL1        0.0000
     11 C         139.3190  140.8576  169.8966 C.ar    1  UNL1        0.0000
     12 C         139.9140  140.6619  168.5335 C.ar    1  UNL1        0.0000
     13 S         141.1524  143.2649  162.9226 S.O2    1  UNL1        0.0346
     14 O         142.5975  143.6406  162.7796 O.2     1  UNL1       -0.1637
     15 O         139.7073  142.8892  163.0656 O.2     1  UNL1       -0.1637
     16 C         140.7980  144.2037  161.8077 C.ar    1  UNL1        0.1599
     17 C         139.7522  145.2779  161.8584 C.ar    1  UNL1        0.1244
     18 N         139.7350  145.9712  160.5284 N.ar    1  UNL1       -0.2384
     19 C         140.7703  145.3256  159.6557 C.ar    1  UNL1        0.1052
     20 S         141.4272  144.2332  160.4464 S.2     1  UNL1       -0.0508
     21 C         141.0920  145.7056  158.2407 C.3     1  UNL1        0.1186
     22 N         142.4785  146.1504  157.8804 N.3     1  UNL1       -0.3157
     23 H         142.6835  147.0348  158.3455 H       1  UNL1        0.1192
     24 H         142.5440  146.2744  156.8701 H       1  UNL1        0.1192
     25 C         145.2002  139.3995  164.3460 C.3     1  UNL1        0.0050
     26 C         143.7599  139.1181  164.6562 C.3     1  UNL1        0.0264
@<TRIPOS>BOND
     1    25    26    1
     2    26     1    1
     3     1     2   ar
     4     2     3   ar
     5     3     7    1
     6     7     8   ar
     7     8     9   ar
     8     9    10   ar
     9    10    11   ar
    10    11    12   ar
    11     3     4   ar
    12     4     5   ar
    13     5    13    1
    14    13    14    2
    15    13    15    2
    16    13    16    1
    17    16    17   ar
    18    17    18   ar
    19    18    19   ar
    20    19    21    1
    21    21    22    1
    22    19    20   ar
    23     5     6   ar
    24     6     1   ar
    25    12     7   ar
    26    20    16   ar
    27    22    23    1
    28    22    24    1
@<TRIPOS>MOLECULE
*****
 26 28 0 0 0
SMALL
GASTEIGER

@<TRIPOS>ATOM
      1 C         139.0317  139.0884  166.4260 C.ar    1  UNL1       -0.0209
      2 C         139.6383  139.9503  167.4932 C.ar    1  UNL1       -0.0042
      3 C         140.9584  140.6216  167.2548 C.ar    1  UNL1        0.0010
      4 C         141.6718  140.4310  165.9492 C.ar    1  UNL1        0.0187
      5 C         141.0651  139.5691  164.8820 C.ar    1  UNL1        0.1106
      6 C         139.7451  138.8978  165.1203 C.ar    1  UNL1        0.0145
      7 C         141.5650  141.4836  168.3221 C.ar    1  UNL1        0.0000
      8 C         142.9712  141.2323  168.7798 C.ar    1  UNL1        0.0000
      9 C         143.5779  142.0942  169.8471 C.ar    1  UNL1        0.0000
     10 C         142.7783  143.2074  170.4567 C.ar    1  UNL1        0.0000
     11 C         141.3721  143.4586  169.9990 C.ar    1  UNL1        0.0000
     12 C         140.7655  142.5967  168.9317 C.ar    1  UNL1        0.0000
     13 S         141.7785  139.3784  163.5762 S.O2    1  UNL1        0.0346
     14 O         140.4954  138.9323  162.9403 O.2     1  UNL1       -0.1637
     15 O         143.0617  139.8246  164.2122 O.2     1  UNL1       -0.1637
     16 C         142.4919  139.1878  162.2706 C.ar    1  UNL1        0.1599
     17 C         143.8127  138.5028  162.0793 C.ar    1  UNL1        0.1244
     18 N         144.1469  138.5404  160.6175 N.ar    1  UNL1       -0.2384
     19 C         143.0327  139.2486  159.9054 C.ar    1  UNL1        0.1052
     20 S         142.0099  139.6487  160.9271 S.2     1  UNL1       -0.0508
     21 C         142.9550  139.5106  158.4305 C.3     1  UNL1        0.1186
     22 N         143.5067  138.5083  157.4605 N.3     1  UNL1       -0.3157
     23 H         144.5191  138.4503  157.5705 H       1  UNL1        0.1192
     24 H         143.2841  138.7984  156.5083 H       1  UNL1        0.1192
     25 C         137.6060  136.9227  166.5903 C.3     1  UNL1        0.0050
     26 C         137.7117  138.4171  166.6643 C.3     1  UNL1        0.0264
@<TRIPOS>BOND
     1    25    26    1
     2    26     1    1
     3     1     2   ar
     4     2     3   ar
     5     3     7    1
     6     7     8   ar
     7     8     9   ar
     8     9    10   ar
     9    10    11   ar
    10    11    12   ar
    11     3     4   ar
    12     4     5   ar
    13     5    13    1
    14    13    14    2
    15    13    15    2
    16    13    16    1
    17    16    17   ar
    18    17    18   ar
    19    18    19   ar
    20    19    21    1
    21    21    22    1
    22    19    20   ar
    23     5     6   ar
    24     6     1   ar
    25    12     7   ar
    26    20    16   ar
    27    22    23    1
    28    22    24    1
@<TRIPOS>MOLECULE
*****
 26 28 0 0 0
SMALL
GASTEIGER

@<TRIPOS>ATOM
      1 C         140.2127  144.3994  163.6910 C.ar    1  UNL1       -0.0209
      2 C         141.2297  143.3776  164.1051 C.ar    1  UNL1       -0.0042
      3 C         142.2155  142.8519  163.1041 C.ar    1  UNL1        0.0010
      4 C         142.1842  143.3481  161.6889 C.ar    1  UNL1        0.0187
      5 C         141.1672  144.3699  161.2748 C.ar    1  UNL1        0.1106
      6 C         140.1815  144.8956  162.2758 C.ar    1  UNL1        0.0145
      7 C         143.2325  141.8300  163.5183 C.ar    1  UNL1        0.0000
      8 C         144.6916  142.1776  163.5090 C.ar    1  UNL1        0.0000
      9 C         145.7087  141.1558  163.9232 C.ar    1  UNL1        0.0000
     10 C         145.2665  139.7864  164.3467 C.ar    1  UNL1        0.0000
     11 C         143.8074  139.4388  164.3560 C.ar    1  UNL1        0.0000
     12 C         142.7903  140.4607  163.9418 C.ar    1  UNL1        0.0000
     13 S         141.1359  144.8662  159.8595 S.O2    1  UNL1        0.0346
     14 O         139.7343  145.3600  160.0637 O.2     1  UNL1       -0.1637
     15 O         142.5374  144.3724  159.6554 O.2     1  UNL1       -0.1637
     16 C         141.1046  145.3624  158.4444 C.ar    1  UNL1        0.1599
     17 C         142.1964  145.1998  157.4287 C.ar    1  UNL1        0.1244
     18 N         141.7426  145.8452  156.1530 N.ar    1  UNL1       -0.2384
     19 C         140.3703  146.4068  156.3803 C.ar    1  UNL1        0.1052
     20 S         139.9761  146.1084  157.7964 S.2     1  UNL1       -0.0508
     21 C         139.5384  147.1384  155.3689 C.3     1  UNL1        0.1186
     22 N         138.1686  146.6365  155.0203 N.3     1  UNL1       -0.3157
     23 H         138.2460  145.7319  154.5554 H       1  UNL1        0.1192
     24 H         137.7115  147.3014  154.3963 H       1  UNL1        0.1192
     25 C         137.8706  144.2957  164.8107 C.3     1  UNL1        0.0050
     26 C         139.2270  144.9250  164.6920 C.3     1  UNL1        0.0264
@<TRIPOS>BOND
     1    25    26    1
     2    26     1    1
     3     1     2   ar
     4     2     3   ar
     5     3     7    1
     6     7     8   ar
     7     8     9   ar
     8     9    10   ar
     9    10    11   ar
    10    11    12   ar
    11     3     4   ar
    12     4     5   ar
    13     5    13    1
    14    13    14    2
    15    13    15    2
    16    13    16    1
    17    16    17   ar
    18    17    18   ar
    19    18    19   ar
    20    19    21    1
    21    21    22    1
    22    19    20   ar
    23     5     6   ar
    24     6     1   ar
    25    12     7   ar
    26    20    16   ar
    27    22    23    1
    28    22    24    1
@<TRIPOS>MOLECULE
*****
 26 28 0 0 0
SMALL
GASTEIGER

@<TRIPOS>ATOM
      1 C         140.2501  143.5166  164.9148 C.ar    1  UNL1       -0.0209
      2 C         140.6999  142.9904  166.2455 C.ar    1  UNL1       -0.0042
      3 C         141.7386  141.9104  166.3128 C.ar    1  UNL1        0.0010
      4 C         142.3276  141.3565  165.0494 C.ar    1  UNL1        0.0187
      5 C         141.8779  141.8826  163.7187 C.ar    1  UNL1        0.1106
      6 C         140.8391  142.9627  163.6514 C.ar    1  UNL1        0.0145
      7 C         142.1883  141.3842  167.6436 C.ar    1  UNL1        0.0000
      8 C         141.8229  139.9907  168.0615 C.ar    1  UNL1        0.0000
      9 C         142.2725  139.4645  169.3922 C.ar    1  UNL1        0.0000
     10 C         143.0877  140.3319  170.3052 C.ar    1  UNL1        0.0000
     11 C         143.4531  141.7254  169.8873 C.ar    1  UNL1        0.0000
     12 C         143.0034  142.2515  168.5565 C.ar    1  UNL1        0.0000
     13 S         142.4669  141.3287  162.4552 S.O2    1  UNL1        0.0346
     14 O         143.7039  142.1489  162.6722 O.2     1  UNL1       -0.1637
     15 O         141.2299  140.5086  162.2381 O.2     1  UNL1       -0.1637
     16 C         143.0558  140.7749  161.1917 C.ar    1  UNL1        0.1599
     17 C         143.5033  139.3598  160.9739 C.ar    1  UNL1        0.1244
     18 N         144.0247  139.2491  159.5718 N.ar    1  UNL1       -0.2384
     19 C         143.8994  140.5958  158.9231 C.ar    1  UNL1        0.1052
     20 S         143.3006  141.5387  159.9243 S.2     1  UNL1       -0.0508
     21 C         144.3023  140.9393  157.5196 C.3     1  UNL1        0.1186
     22 N         145.3734  140.1462  156.8314 N.3     1  UNL1       -0.3157
     23 H         146.2641  140.2944  157.3057 H       1  UNL1        0.1192
     24 H         145.4505  140.4496  155.8606 H       1  UNL1        0.1192
     25 C         137.7640  144.2364  164.6896 C.3     1  UNL1        0.0050
     26 C         139.2114  144.5967  164.8475 C.3     1  UNL1        0.0264
@<TRIPOS>BOND
     1    25    26    1
     2    26     1    1
     3     1     2   ar
     4     2     3   ar
     5     3     7    1
     6     7     8   ar
     7     8     9   ar
     8     9    10   ar
     9    10    11   ar
    10    11    12   ar
    11     3     4   ar
    12     4     5   ar
    13     5    13    1
    14    13    14    2
    15    13    15    2
    16    13    16    1
    17    16    17   ar
    18    17    18   ar
    19    18    19   ar
    20    19    21    1
    21    21    22    1
    22    19    20   ar
    23     5     6   ar
    24     6     1   ar
    25    12     7   ar
    26    20    16   ar
    27    22    23    1
    28    22    24    1
@<TRIPOS>MOLECULE
*****
 26 28 0 0 0
SMALL
GASTEIGER

@<TRIPOS>ATOM
      1 C         143.3533  140.7258  164.5939 C.ar    1  UNL1       -0.0209
      2 C         142.8034  141.0215  165.9578 C.ar    1  UNL1       -0.0042
      3 C         141.3226  141.1530  166.1572 C.ar    1  UNL1        0.0010
      4 C         140.3916  140.9889  164.9926 C.ar    1  UNL1        0.0187
      5 C         140.9414  140.6932  163.6287 C.ar    1  UNL1        0.1106
      6 C         142.4222  140.5617  163.4294 C.ar    1  UNL1        0.0145
      7 C         140.7728  141.4487  167.5211 C.ar    1  UNL1        0.0000
      8 C         140.9966  142.7947  168.1444 C.ar    1  UNL1        0.0000
      9 C         140.4468  143.0904  169.5083 C.ar    1  UNL1        0.0000
     10 C         139.6732  142.0402  170.2490 C.ar    1  UNL1        0.0000
     11 C         139.4493  140.6943  169.6257 C.ar    1  UNL1        0.0000
     12 C         139.9992  140.3986  168.2618 C.ar    1  UNL1        0.0000
     13 S         140.0103  140.5291  162.4641 S.O2    1  UNL1        0.0346
     14 O         140.5142  139.1314  162.2582 O.2     1  UNL1       -0.1637
     15 O         139.5065  141.9268  162.6700 O.2     1  UNL1       -0.1637
     16 C         139.0793  140.3650  161.2996 C.ar    1  UNL1        0.1599
     17 C         137.7877  139.6023  161.3040 C.ar    1  UNL1        0.1244
     18 N         137.1866  139.7007  159.9332 N.ar    1  UNL1       -0.2384
     19 C         138.1067  140.5242  159.0816 C.ar    1  UNL1        0.1052
     20 S         139.2765  140.9348  159.9261 S.2     1  UNL1       -0.0508
     21 C         137.8943  140.8755  157.6389 C.3     1  UNL1        0.1186
     22 N         136.5760  140.5888  156.9834 N.3     1  UNL1       -0.3157
     23 H         136.4319  139.5801  156.9364 H       1  UNL1        0.1192
     24 H         136.5738  140.9768  156.0401 H       1  UNL1        0.1192
     25 C         145.6001  141.6915  163.7168 C.3     1  UNL1        0.0050
     26 C         144.8341  140.5943  164.3946 C.3     1  UNL1        0.0264
@<TRIPOS>BOND
     1    25    26    1
     2    26     1    1
     3     1     2   ar
     4     2     3   ar
     5     3     7    1
     6     7     8   ar
     7     8     9   ar
     8     9    10   ar
     9    10    11   ar
    10    11    12   ar
    11     3     4   ar
    12     4     5   ar
    13     5    13    1
    14    13    14    2
    15    13    15    2
    16    13    16    1
    17    16    17   ar
    18    17    18   ar
    19    18    19   ar
    20    19    21    1
    21    21    22    1
    22    19    20   ar
    23     5     6   ar
    24     6     1   ar
    25    12     7   ar
    26    20    16   ar
    27    22    23    1
    28    22    24    1
@<TRIPOS>MOLECULE
*****
 26 28 0 0 0
SMALL
GASTEIGER

@<TRIPOS>ATOM
      1 C         142.7316  144.0164  163.8782 C.ar    1  UNL1       -0.0209
      2 C         141.9527  143.0125  164.6753 C.ar    1  UNL1       -0.0042
      3 C         140.7458  142.3530  164.0766 C.ar    1  UNL1        0.0010
      4 C         140.3179  142.6973  162.6808 C.ar    1  UNL1        0.0187
      5 C         141.0968  143.7011  161.8837 C.ar    1  UNL1        0.1106
      6 C         142.3037  144.3607  162.4824 C.ar    1  UNL1        0.0145
      7 C         139.9669  141.3490  164.8738 C.ar    1  UNL1        0.0000
      8 C         138.8668  140.5646  164.2222 C.ar    1  UNL1        0.0000
      9 C         138.0879  139.5607  165.0193 C.ar    1  UNL1        0.0000
     10 C         138.4090  139.3412  166.4681 C.ar    1  UNL1        0.0000
     11 C         139.5090  140.1257  167.1197 C.ar    1  UNL1        0.0000
     12 C         140.2880  141.1296  166.3225 C.ar    1  UNL1        0.0000
     13 S         140.6689  144.0455  160.4878 S.O2    1  UNL1        0.0346
     14 O         142.0807  144.4211  160.1476 O.2     1  UNL1       -0.1637
     15 O         139.2571  143.6699  160.8280 O.2     1  UNL1       -0.1637
     16 C         140.2410  144.3898  159.0921 C.ar    1  UNL1        0.1599
     17 C         139.5265  143.4783  158.1387 C.ar    1  UNL1        0.1244
     18 N         139.2963  144.2312  156.8620 N.ar    1  UNL1       -0.2384
     19 C         139.8685  145.6081  157.0263 C.ar    1  UNL1        0.1052
     20 S         140.4523  145.7061  158.4045 S.2     1  UNL1       -0.0508
     21 C         139.8586  146.6960  155.9936 C.3     1  UNL1        0.1186
     22 N         138.5770  147.3992  155.6573 N.3     1  UNL1       -0.3157
     23 H         137.9332  146.7412  155.2182 H       1  UNL1        0.1192
     24 H         138.7693  148.1673  155.0142 H       1  UNL1        0.1192
     25 C         144.7474  143.9581  165.5162 C.3     1  UNL1        0.0050
     26 C         143.9385  144.6760  164.4769 C.3     1  UNL1        0.0264
@<TRIPOS>BOND
     1    25    26    1
     2    26     1    1
     3     1     2   ar
     4     2     3   ar
     5     3     7    1
     6     7     8   ar
     7     8     9   ar
     8     9    10   ar
     9    10    11   ar
    10    11    12   ar
    11     3     4   ar
    12     4     5   ar
    13     5    13    1
    14    13    14    2
    15    13    15    2
    16    13    16    1
    17    16    17   ar
    18    17    18   ar
    19    18    19   ar
    20    19    21    1
    21    21    22    1
    22    19    20   ar
    23     5     6   ar
    24     6     1   ar
    25    12     7   ar
    26    20    16   ar
    27    22    23    1
    28    22    24    1
@<TRIPOS>MOLECULE
*****
 26 28 0 0 0
SMALL
GASTEIGER

@<TRIPOS>ATOM
      1 C         140.6498  136.7541  155.8815 C.ar    1  UNL1       -0.0209
      2 C         141.3730  135.4478  155.7390 C.ar    1  UNL1       -0.0042
      3 C         142.6075  135.1817  156.5484 C.ar    1  UNL1        0.0010
      4 C         143.1188  136.2220  157.5005 C.ar    1  UNL1        0.0187
      5 C         142.3955  137.5283  157.6430 C.ar    1  UNL1        0.1106
      6 C         141.1610  137.7944  156.8336 C.ar    1  UNL1        0.0145
      7 C         143.3308  133.8753  156.4058 C.ar    1  UNL1        0.0000
      8 C         144.2628  133.4123  157.4860 C.ar    1  UNL1        0.0000
      9 C         144.9861  132.1059  157.3434 C.ar    1  UNL1        0.0000
     10 C         144.7773  131.2626  156.1206 C.ar    1  UNL1        0.0000
     11 C         143.8452  131.7256  155.0404 C.ar    1  UNL1        0.0000
     12 C         143.1220  133.0320  155.1830 C.ar    1  UNL1        0.0000
     13 S         142.9067  138.5687  158.5951 S.O2    1  UNL1        0.0346
     14 O         143.7325  139.1688  157.4961 O.2     1  UNL1       -0.1637
     15 O         142.0810  137.9685  159.6942 O.2     1  UNL1       -0.1637
     16 C         143.4179  139.6089  159.5472 C.ar    1  UNL1        0.1599
     17 C         143.4824  141.0851  159.2888 C.ar    1  UNL1        0.1244
     18 N         144.0587  141.7442  160.5067 N.ar    1  UNL1       -0.2384
     19 C         144.3504  140.6753  161.5179 C.ar    1  UNL1        0.1052
     20 S         143.9544  139.3557  160.9249 S.2     1  UNL1       -0.0508
     21 C         144.9354  140.8887  162.8826 C.3     1  UNL1        0.1186
     22 N         146.1082  141.8068  163.0607 N.3     1  UNL1       -0.3157
     23 H         146.9215  141.4155  162.5856 H       1  UNL1        0.1192
     24 H         146.3118  141.9093  164.0549 H       1  UNL1        0.1192
     25 C         139.4668  136.9344  153.5754 C.3     1  UNL1        0.0050
     26 C         139.4153  137.0202  155.0721 C.3     1  UNL1        0.0264
@<TRIPOS>BOND
     1    25    26    1
     2    26     1    1
     3     1     2   ar
     4     2     3   ar
     5     3     7    1
     6     7     8   ar
     7     8     9   ar
     8     9    10   ar
     9    10    11   ar
    10    11    12   ar
    11     3     4   ar
    12     4     5   ar
    13     5    13    1
    14    13    14    2
    15    13    15    2
    16    13    16    1
    17    16    17   ar
    18    17    18   ar
    19    18    19   ar
    20    19    21    1
    21    21    22    1
    22    19    20   ar
    23     5     6   ar
    24     6     1   ar
    25    12     7   ar
    26    20    16   ar
    27    22    23    1
    28    22    24    1
