@<TRIPOS>MOLECULE
*****
 28 31 0 0 0
SMALL
GASTEIGER

@<TRIPOS>ATOM
      1 C         139.6617  139.4705  165.2197 C.ar    1  UNL1        0.0344
      2 C         140.2776  138.1922  164.7333 C.ar    1  UNL1        0.0061
      3 C         139.9719  137.6899  163.3535 C.ar    1  UNL1        0.0370
      4 C         139.0501  138.4658  162.4600 C.ar    1  UNL1        0.1386
      5 C         138.4341  139.7441  162.9464 C.ar    1  UNL1        0.0370
      6 C         138.7399  140.2464  164.3262 C.ar    1  UNL1        0.0061
      7 C         137.7940  138.8595  167.4865 C.3     1  UNL1        0.1350
      8 N         139.0336  139.6674  167.7331 N.ar    1  UNL1       -0.2786
      9 C         139.9675  139.9729  166.5997 C.ar    1  UNL1        0.1460
     10 N         141.2070  140.7807  166.8462 N.ar    1  UNL1       -0.2280
     11 C         141.5128  141.2831  168.2261 C.ar    1  UNL1        0.0875
     12 C         142.7524  142.0910  168.4726 C.ar    1  UNL1        0.0193
     13 C         143.0581  142.5933  169.8525 C.ar    1  UNL1        0.0015
     14 C         142.1243  142.2878  170.9859 C.ar    1  UNL1        0.0003
     15 C         140.8847  141.4800  170.7394 C.ar    1  UNL1        0.0063
     16 C         140.5790  140.9776  169.3595 C.ar    1  UNL1        0.0739
     17 C         139.3393  140.1697  169.1130 C.ar    1  UNL1        0.2634
     18 O         138.4055  139.8643  170.2464 O.2     1  UNL1       -0.2669
     19 O         138.7443  137.9634  161.0800 O.3     1  UNL1       -0.4754
     20 C         139.6194  138.3576  159.9273 C.3     1  UNL1        0.2068
     21 C         140.6411  139.4424  160.0981 C.3     1  UNL1        0.0646
     22 C         142.0543  139.0918  160.4590 C.3     1  UNL1        0.0759
     23 N         142.6271  139.5414  161.7703 N.3     1  UNL1       -0.2726
     24 C         142.1093  140.7865  162.4275 C.3     1  UNL1        0.0721
     25 C         142.6821  141.2361  163.7388 C.3     1  UNL1        0.0174
     26 C         143.7727  140.4409  164.3930 C.3     1  UNL1        0.0029
     27 C         144.2906  139.1959  163.7359 C.3     1  UNL1        0.0174
     28 C         143.7178  138.7461  162.4245 C.3     1  UNL1        0.0721
@<TRIPOS>BOND
     1     7     8    1
     2     8     9   ar
     3     9     1    1
     4     1     2   ar
     5     2     3   ar
     6     3     4   ar
     7     4    19    1
     8    19    20    1
     9    20    21    1
    10    21    22    1
    11    22    23    1
    12    23    24    1
    13    24    25    1
    14    25    26    1
    15    26    27    1
    16    27    28    1
    17     4     5   ar
    18     5     6   ar
    19     9    10   ar
    20    10    11   ar
    21    11    12   ar
    22    12    13   ar
    23    13    14   ar
    24    14    15   ar
    25    15    16   ar
    26    16    17   ar
    27    17    18    2
    28    17     8   ar
    29     6     1   ar
    30    16    11   ar
    31    28    23    1
@<TRIPOS>MOLECULE
*****
 28 31 0 0 0
SMALL
GASTEIGER

@<TRIPOS>ATOM
      1 C         142.4595  142.3185  164.4815 C.ar    1  UNL1        0.0344
      2 C         143.4244  143.4334  164.2058 C.ar    1  UNL1        0.0061
      3 C         143.6609  143.8892  162.7965 C.ar    1  UNL1        0.0370
      4 C         142.9326  143.2301  161.6628 C.ar    1  UNL1        0.1386
      5 C         141.9678  142.1153  161.9385 C.ar    1  UNL1        0.0370
      6 C         141.7312  141.6595  163.3478 C.ar    1  UNL1        0.0061
      7 C         143.6208  139.7211  165.4327 C.3     1  UNL1        0.1350
      8 N         142.8036  140.5640  166.3665 N.ar    1  UNL1       -0.2786
      9 C         142.2229  141.8627  165.8909 C.ar    1  UNL1        0.1460
     10 N         141.4058  142.7055  166.8245 N.ar    1  UNL1       -0.2280
     11 C         141.1692  142.2496  168.2339 C.ar    1  UNL1        0.0875
     12 C         140.3520  143.0925  169.1676 C.ar    1  UNL1        0.0193
     13 C         140.1154  142.6366  170.5769 C.ar    1  UNL1        0.0015
     14 C         140.6961  141.3379  171.0525 C.ar    1  UNL1        0.0003
     15 C         141.5133  140.4951  170.1189 C.ar    1  UNL1        0.0063
     16 C         141.7498  140.9509  168.7096 C.ar    1  UNL1        0.0739
     17 C         142.5670  140.1081  167.7758 C.ar    1  UNL1        0.2634
     18 O         143.1477  138.8094  168.2514 O.2     1  UNL1       -0.2669
     19 O         143.1692  143.6860  160.2534 O.3     1  UNL1       -0.4754
     20 C         142.0287  144.2136  159.4344 C.3     1  UNL1        0.2068
     21 C         141.0191  145.1312  160.0579 C.3     1  UNL1        0.0646
     22 C         139.6521  144.6189  160.4028 C.3     1  UNL1        0.0759
     23 N         139.2895  144.3539  161.8340 N.3     1  UNL1       -0.2726
     24 C         139.9879  145.0964  162.9345 C.3     1  UNL1        0.0721
     25 C         139.6253  144.8315  164.3656 C.3     1  UNL1        0.0174
     26 C         138.5644  143.8240  164.6964 C.3     1  UNL1        0.0029
     27 C         137.8660  143.0815  163.5960 C.3     1  UNL1        0.0174
     28 C         138.2286  143.3465  162.1647 C.3     1  UNL1        0.0721
@<TRIPOS>BOND
     1     7     8    1
     2     8     9   ar
     3     9     1    1
     4     1     2   ar
     5     2     3   ar
     6     3     4   ar
     7     4    19    1
     8    19    20    1
     9    20    21    1
    10    21    22    1
    11    22    23    1
    12    23    24    1
    13    24    25    1
    14    25    26    1
    15    26    27    1
    16    27    28    1
    17     4     5   ar
    18     5     6   ar
    19     9    10   ar
    20    10    11   ar
    21    11    12   ar
    22    12    13   ar
    23    13    14   ar
    24    14    15   ar
    25    15    16   ar
    26    16    17   ar
    27    17    18    2
    28    17     8   ar
    29     6     1   ar
    30    16    11   ar
    31    28    23    1
@<TRIPOS>MOLECULE
*****
 28 31 0 0 0
SMALL
GASTEIGER

@<TRIPOS>ATOM
      1 C         142.9329  139.9755  164.7520 C.ar    1  UNL1        0.0344
      2 C         144.2321  140.5061  164.2226 C.ar    1  UNL1        0.0061
      3 C         144.6032  140.2845  162.7862 C.ar    1  UNL1        0.0370
      4 C         143.6750  139.5322  161.8793 C.ar    1  UNL1        0.1386
      5 C         142.3758  139.0015  162.4088 C.ar    1  UNL1        0.0370
      6 C         142.0047  139.2231  163.8452 C.ar    1  UNL1        0.0061
      7 C         143.7458  137.9772  166.8368 C.3     1  UNL1        0.1350
      8 N         142.9683  139.1980  167.2308 N.ar    1  UNL1       -0.2786
      9 C         142.5618  140.1971  166.1885 C.ar    1  UNL1        0.1460
     10 N         141.7844  141.4178  166.5825 N.ar    1  UNL1       -0.2280
     11 C         141.4133  141.6395  168.0189 C.ar    1  UNL1        0.0875
     12 C         140.6358  142.8602  168.4129 C.ar    1  UNL1        0.0193
     13 C         140.2647  143.0818  169.8493 C.ar    1  UNL1        0.0015
     14 C         140.6712  142.0826  170.8916 C.ar    1  UNL1        0.0003
     15 C         141.4487  140.8619  170.4976 C.ar    1  UNL1        0.0063
     16 C         141.8197  140.6403  169.0613 C.ar    1  UNL1        0.0739
     17 C         142.5972  139.4195  168.6672 C.ar    1  UNL1        0.2634
     18 O         143.0037  138.4204  169.7096 O.2     1  UNL1       -0.2669
     19 O         144.0461  139.3105  160.4429 O.3     1  UNL1       -0.4754
     20 C         143.9804  140.4479  159.4672 C.3     1  UNL1        0.2068
     21 C         143.0151  141.5738  159.6918 C.3     1  UNL1        0.0646
     22 C         143.5049  142.8856  160.2299 C.3     1  UNL1        0.0759
     23 N         143.1729  143.2906  161.6355 N.3     1  UNL1       -0.2726
     24 C         144.1611  144.0805  162.4416 C.3     1  UNL1        0.0721
     25 C         143.8291  144.4856  163.8472 C.3     1  UNL1        0.0174
     26 C         142.5091  144.1007  164.4467 C.3     1  UNL1        0.0029
     27 C         141.5210  143.3109  163.6407 C.3     1  UNL1        0.0174
     28 C         141.8529  142.9058  162.2350 C.3     1  UNL1        0.0721
@<TRIPOS>BOND
     1     7     8    1
     2     8     9   ar
     3     9     1    1
     4     1     2   ar
     5     2     3   ar
     6     3     4   ar
     7     4    19    1
     8    19    20    1
     9    20    21    1
    10    21    22    1
    11    22    23    1
    12    23    24    1
    13    24    25    1
    14    25    26    1
    15    26    27    1
    16    27    28    1
    17     4     5   ar
    18     5     6   ar
    19     9    10   ar
    20    10    11   ar
    21    11    12   ar
    22    12    13   ar
    23    13    14   ar
    24    14    15   ar
    25    15    16   ar
    26    16    17   ar
    27    17    18    2
    28    17     8   ar
    29     6     1   ar
    30    16    11   ar
    31    28    23    1
@<TRIPOS>MOLECULE
*****
 28 31 0 0 0
SMALL
GASTEIGER

@<TRIPOS>ATOM
      1 C         139.6346  141.9537  164.0971 C.ar    1  UNL1        0.0344
      2 C         138.5208  142.9405  163.9076 C.ar    1  UNL1        0.0061
      3 C         138.0698  143.3059  162.5245 C.ar    1  UNL1        0.0370
      4 C         138.7326  142.6846  161.3309 C.ar    1  UNL1        0.1386
      5 C         139.8463  141.6979  161.5203 C.ar    1  UNL1        0.0370
      6 C         140.2973  141.3325  162.9034 C.ar    1  UNL1        0.0061
      7 C         138.0371  140.0100  165.7311 C.3     1  UNL1        0.1350
      8 N         139.2869  140.6164  166.2972 N.ar    1  UNL1       -0.2786
      9 C         140.0856  141.5882  165.4802 C.ar    1  UNL1        0.1460
     10 N         141.3353  142.1946  166.0463 N.ar    1  UNL1       -0.2280
     11 C         141.7864  141.8291  167.4295 C.ar    1  UNL1        0.0875
     12 C         143.0361  142.4354  167.9955 C.ar    1  UNL1        0.0193
     13 C         143.4871  142.0699  169.3786 C.ar    1  UNL1        0.0015
     14 C         142.6884  141.0980  170.1956 C.ar    1  UNL1        0.0003
     15 C         141.4386  140.4917  169.6295 C.ar    1  UNL1        0.0063
     16 C         140.9877  140.8572  168.2465 C.ar    1  UNL1        0.0739
     17 C         139.7379  140.2509  167.6803 C.ar    1  UNL1        0.2634
     18 O         138.9391  139.2790  168.4973 O.2     1  UNL1       -0.2669
     19 O         138.2815  143.0501  159.9477 O.3     1  UNL1       -0.4754
     20 C         139.2584  143.0270  158.8097 C.3     1  UNL1        0.2068
     21 C         140.0418  144.2598  158.4686 C.3     1  UNL1        0.0646
     22 C         140.2443  145.3292  159.5007 C.3     1  UNL1        0.0759
     23 N         141.0320  145.0336  160.7425 N.3     1  UNL1       -0.2726
     24 C         140.6301  145.6493  162.0500 C.3     1  UNL1        0.0721
     25 C         141.4178  145.3536  163.2918 C.3     1  UNL1        0.0174
     26 C         142.6074  144.4422  163.2262 C.3     1  UNL1        0.0029
     27 C         143.0093  143.8265  161.9188 C.3     1  UNL1        0.0174
     28 C         142.2216  144.1222  160.6769 C.3     1  UNL1        0.0721
@<TRIPOS>BOND
     1     7     8    1
     2     8     9   ar
     3     9     1    1
     4     1     2   ar
     5     2     3   ar
     6     3     4   ar
     7     4    19    1
     8    19    20    1
     9    20    21    1
    10    21    22    1
    11    22    23    1
    12    23    24    1
    13    24    25    1
    14    25    26    1
    15    26    27    1
    16    27    28    1
    17     4     5   ar
    18     5     6   ar
    19     9    10   ar
    20    10    11   ar
    21    11    12   ar
    22    12    13   ar
    23    13    14   ar
    24    14    15   ar
    25    15    16   ar
    26    16    17   ar
    27    17    18    2
    28    17     8   ar
    29     6     1   ar
    30    16    11   ar
    31    28    23    1
@<TRIPOS>MOLECULE
*****
 28 31 0 0 0
SMALL
GASTEIGER

@<TRIPOS>ATOM
      1 C         140.7217  139.6746  164.6651 C.ar    1  UNL1        0.0344
      2 C         141.1404  140.6490  163.6045 C.ar    1  UNL1        0.0061
      3 C         141.1154  140.2427  162.1608 C.ar    1  UNL1        0.0370
      4 C         140.6716  138.8620  161.7778 C.ar    1  UNL1        0.1386
      5 C         140.2529  137.8876  162.8385 C.ar    1  UNL1        0.0370
      6 C         140.2779  138.2938  164.2821 C.ar    1  UNL1        0.0061
      7 C         138.4471  138.9280  166.4731 C.3     1  UNL1        0.1350
      8 N         139.6094  139.7075  167.0129 N.ar    1  UNL1       -0.2786
      9 C         140.7467  140.0808  166.1089 C.ar    1  UNL1        0.1460
     10 N         141.9090  140.8603  166.6487 N.ar    1  UNL1       -0.2280
     11 C         141.9340  141.2666  168.0924 C.ar    1  UNL1        0.0875
     12 C         143.0963  142.0461  168.6322 C.ar    1  UNL1        0.0193
     13 C         143.1213  142.4523  170.0759 C.ar    1  UNL1        0.0015
     14 C         141.9840  142.0790  170.9798 C.ar    1  UNL1        0.0003
     15 C         140.8217  141.2995  170.4401 C.ar    1  UNL1        0.0063
     16 C         140.7967  140.8933  168.9964 C.ar    1  UNL1        0.0739
     17 C         139.6344  140.1137  168.4566 C.ar    1  UNL1        0.2634
     18 O         138.4971  139.7404  169.3605 O.2     1  UNL1       -0.2669
     19 O         140.6466  138.4557  160.3340 O.3     1  UNL1       -0.4754
     20 C         139.3616  138.5090  159.5621 C.3     1  UNL1        0.2068
     21 C         138.5114  139.7439  159.6054 C.3     1  UNL1        0.0646
     22 C         137.5198  139.9333  160.7150 C.3     1  UNL1        0.0759
     23 N         137.7081  141.0416  161.7081 N.3     1  UNL1       -0.2726
     24 C         137.4631  140.7914  163.1667 C.3     1  UNL1        0.0721
     25 C         137.6513  141.8997  164.1597 C.3     1  UNL1        0.0174
     26 C         138.0846  143.2582  163.6942 C.3     1  UNL1        0.0029
     27 C         138.3296  143.5085  162.2357 C.3     1  UNL1        0.0174
     28 C         138.1414  142.4001  161.2426 C.3     1  UNL1        0.0721
@<TRIPOS>BOND
     1     7     8    1
     2     8     9   ar
     3     9     1    1
     4     1     2   ar
     5     2     3   ar
     6     3     4   ar
     7     4    19    1
     8    19    20    1
     9    20    21    1
    10    21    22    1
    11    22    23    1
    12    23    24    1
    13    24    25    1
    14    25    26    1
    15    26    27    1
    16    27    28    1
    17     4     5   ar
    18     5     6   ar
    19     9    10   ar
    20    10    11   ar
    21    11    12   ar
    22    12    13   ar
    23    13    14   ar
    24    14    15   ar
    25    15    16   ar
    26    16    17   ar
    27    17    18    2
    28    17     8   ar
    29     6     1   ar
    30    16    11   ar
    31    28    23    1
@<TRIPOS>MOLECULE
*****
 28 31 0 0 0
SMALL
GASTEIGER

@<TRIPOS>ATOM
      1 C         140.6728  141.3328  164.2947 C.ar    1  UNL1        0.0344
      2 C         141.4612  140.3665  163.4613 C.ar    1  UNL1        0.0061
      3 C         141.4496  140.4827  161.9658 C.ar    1  UNL1        0.0370
      4 C         140.6496  141.5652  161.3039 C.ar    1  UNL1        0.1386
      5 C         139.8612  142.5315  162.1373 C.ar    1  UNL1        0.0370
      6 C         139.8728  142.4153  163.6327 C.ar    1  UNL1        0.0061
      7 C         138.5721  139.7073  165.6892 C.3     1  UNL1        0.1350
      8 N         139.6340  140.4039  166.4875 N.ar    1  UNL1       -0.2786
      9 C         140.6844  141.2167  165.7902 C.ar    1  UNL1        0.1460
     10 N         141.7463  141.9133  166.5883 N.ar    1  UNL1       -0.2280
     11 C         141.7579  141.7971  168.0838 C.ar    1  UNL1        0.0875
     12 C         142.8198  142.4937  168.8820 C.ar    1  UNL1        0.0193
     13 C         142.8313  142.3776  170.3774 C.ar    1  UNL1        0.0015
     14 C         141.7810  141.5648  171.0747 C.ar    1  UNL1        0.0003
     15 C         140.7191  140.8682  170.2765 C.ar    1  UNL1        0.0063
     16 C         140.7075  140.9844  168.7811 C.ar    1  UNL1        0.0739
     17 C         139.6456  140.2878  167.9829 C.ar    1  UNL1        0.2634
     18 O         138.5952  139.4750  168.6802 O.2     1  UNL1       -0.2669
     19 O         140.6380  141.6813  159.8084 O.3     1  UNL1       -0.4754
     20 C         141.5480  142.6584  159.1249 C.3     1  UNL1        0.2068
     21 C         142.4943  143.4946  159.9344 C.3     1  UNL1        0.0646
     22 C         143.7954  142.9138  160.4032 C.3     1  UNL1        0.0759
     23 N         144.1158  142.8769  161.8681 N.3     1  UNL1       -0.2726
     24 C         143.4137  143.8066  162.8130 C.3     1  UNL1        0.0721
     25 C         143.7341  143.7697  164.2779 C.3     1  UNL1        0.0174
     26 C         144.7565  142.8032  164.7980 C.3     1  UNL1        0.0029
     27 C         145.4586  141.8736  163.8531 C.3     1  UNL1        0.0174
     28 C         145.1382  141.9104  162.3881 C.3     1  UNL1        0.0721
@<TRIPOS>BOND
     1     7     8    1
     2     8     9   ar
     3     9     1    1
     4     1     2   ar
     5     2     3   ar
     6     3     4   ar
     7     4    19    1
     8    19    20    1
     9    20    21    1
    10    21    22    1
    11    22    23    1
    12    23    24    1
    13    24    25    1
    14    25    26    1
    15    26    27    1
    16    27    28    1
    17     4     5   ar
    18     5     6   ar
    19     9    10   ar
    20    10    11   ar
    21    11    12   ar
    22    12    13   ar
    23    13    14   ar
    24    14    15   ar
    25    15    16   ar
    26    16    17   ar
    27    17    18    2
    28    17     8   ar
    29     6     1   ar
    30    16    11   ar
    31    28    23    1
@<TRIPOS>MOLECULE
*****
 28 31 0 0 0
SMALL
GASTEIGER

@<TRIPOS>ATOM
      1 C         141.1354  140.1243  164.1233 C.ar    1  UNL1        0.0344
      2 C         140.3980  140.8080  163.0103 C.ar    1  UNL1        0.0061
      3 C         140.8382  140.6151  161.5894 C.ar    1  UNL1        0.0370
      4 C         142.0158  139.7385  161.2815 C.ar    1  UNL1        0.1386
      5 C         142.7532  139.0547  162.3945 C.ar    1  UNL1        0.0370
      6 C         142.3130  139.2477  163.8154 C.ar    1  UNL1        0.0061
      7 C         138.8818  138.4830  165.2314 C.3     1  UNL1        0.1350
      8 N         139.5684  139.4966  166.0983 N.ar    1  UNL1       -0.2786
      9 C         140.6952  140.3172  165.5443 C.ar    1  UNL1        0.1460
     10 N         141.3817  141.3306  166.4111 N.ar    1  UNL1       -0.2280
     11 C         140.9415  141.5235  167.8321 C.ar    1  UNL1        0.0875
     12 C         141.6281  142.5370  168.6989 C.ar    1  UNL1        0.0193
     13 C         141.1879  142.7299  170.1198 C.ar    1  UNL1        0.0015
     14 C         140.0611  141.9092  170.6739 C.ar    1  UNL1        0.0003
     15 C         139.3745  140.8958  169.8070 C.ar    1  UNL1        0.0063
     16 C         139.8147  140.7029  168.3861 C.ar    1  UNL1        0.0739
     17 C         139.1282  139.6894  167.5192 C.ar    1  UNL1        0.2634
     18 O         138.0014  138.8688  168.0732 O.2     1  UNL1       -0.2669
     19 O         142.4560  139.5456  159.8606 O.3     1  UNL1       -0.4754
     20 C         143.7749  140.0942  159.4030 C.3     1  UNL1        0.2068
     21 C         143.8984  141.5440  159.0389 C.3     1  UNL1        0.0646
     22 C         144.7106  142.4667  159.8987 C.3     1  UNL1        0.0759
     23 N         144.3980  142.5999  161.3596 N.3     1  UNL1       -0.2726
     24 C         145.2768  141.9363  162.3782 C.3     1  UNL1        0.0721
     25 C         144.9642  142.0695  163.8392 C.3     1  UNL1        0.0174
     26 C         143.7728  142.8662  164.2817 C.3     1  UNL1        0.0029
     27 C         142.8940  143.5297  163.2631 C.3     1  UNL1        0.0174
     28 C         143.2066  143.3965  161.8021 C.3     1  UNL1        0.0721
@<TRIPOS>BOND
     1     7     8    1
     2     8     9   ar
     3     9     1    1
     4     1     2   ar
     5     2     3   ar
     6     3     4   ar
     7     4    19    1
     8    19    20    1
     9    20    21    1
    10    21    22    1
    11    22    23    1
    12    23    24    1
    13    24    25    1
    14    25    26    1
    15    26    27    1
    16    27    28    1
    17     4     5   ar
    18     5     6   ar
    19     9    10   ar
    20    10    11   ar
    21    11    12   ar
    22    12    13   ar
    23    13    14   ar
    24    14    15   ar
    25    15    16   ar
    26    16    17   ar
    27    17    18    2
    28    17     8   ar
    29     6     1   ar
    30    16    11   ar
    31    28    23    1
@<TRIPOS>MOLECULE
*****
 28 31 0 0 0
SMALL
GASTEIGER

@<TRIPOS>ATOM
      1 C         139.5722  139.1341  163.3109 C.ar    1  UNL1        0.0344
      2 C         139.8790  140.3928  164.0669 C.ar    1  UNL1        0.0061
      3 C         139.6548  140.4511  165.5489 C.ar    1  UNL1        0.0370
      4 C         139.1238  139.2507  166.2749 C.ar    1  UNL1        0.1386
      5 C         138.8169  137.9921  165.5189 C.ar    1  UNL1        0.0370
      6 C         139.0411  137.9338  164.0369 C.ar    1  UNL1        0.0061
      7 C         137.4615  140.1446  161.4337 C.3     1  UNL1        0.1350
      8 N         138.7411  139.5810  160.8902 N.ar    1  UNL1       -0.2786
      9 C         139.7964  139.0758  161.8289 C.ar    1  UNL1        0.1460
     10 N         141.0759  138.5122  161.2855 N.ar    1  UNL1       -0.2280
     11 C         141.3001  138.4539  159.8035 C.ar    1  UNL1        0.0875
     12 C         142.5796  137.8903  159.2601 C.ar    1  UNL1        0.0193
     13 C         142.8037  137.8320  157.7781 C.ar    1  UNL1        0.0015
     14 C         141.7484  138.3372  156.8395 C.ar    1  UNL1        0.0003
     15 C         140.4689  138.9008  157.3829 C.ar    1  UNL1        0.0063
     16 C         140.2448  138.9591  158.8648 C.ar    1  UNL1        0.0739
     17 C         138.9652  139.5227  159.4083 C.ar    1  UNL1        0.2634
     18 O         137.9099  140.0280  158.4696 O.2     1  UNL1       -0.2669
     19 O         138.8996  139.3091  167.7569 O.3     1  UNL1       -0.4754
     20 C         139.6171  140.3341  168.5842 C.3     1  UNL1        0.2068
     21 C         140.7349  139.9158  169.4927 C.3     1  UNL1        0.0646
     22 C         142.1497  140.2889  169.1621 C.3     1  UNL1        0.0759
     23 N         142.6018  140.3230  167.7323 N.3     1  UNL1       -0.2726
     24 C         142.8392  141.6386  167.0519 C.3     1  UNL1        0.0721
     25 C         143.2913  141.6727  165.6221 C.3     1  UNL1        0.0174
     26 C         143.5060  140.3912  164.8726 C.3     1  UNL1        0.0029
     27 C         143.2687  139.0757  165.5530 C.3     1  UNL1        0.0174
     28 C         142.8166  139.0415  166.9829 C.3     1  UNL1        0.0721
@<TRIPOS>BOND
     1     7     8    1
     2     8     9   ar
     3     9     1    1
     4     1     2   ar
     5     2     3   ar
     6     3     4   ar
     7     4    19    1
     8    19    20    1
     9    20    21    1
    10    21    22    1
    11    22    23    1
    12    23    24    1
    13    24    25    1
    14    25    26    1
    15    26    27    1
    16    27    28    1
    17     4     5   ar
    18     5     6   ar
    19     9    10   ar
    20    10    11   ar
    21    11    12   ar
    22    12    13   ar
    23    13    14   ar
    24    14    15   ar
    25    15    16   ar
    26    16    17   ar
    27    17    18    2
    28    17     8   ar
    29     6     1   ar
    30    16    11   ar
    31    28    23    1
@<TRIPOS>MOLECULE
*****
 28 31 0 0 0
SMALL
GASTEIGER

@<TRIPOS>ATOM
      1 C         139.8200  141.2620  162.3178 C.ar    1  UNL1        0.0344
      2 C         138.7985  142.1299  161.6446 C.ar    1  UNL1        0.0061
      3 C         138.9474  142.4748  160.1924 C.ar    1  UNL1        0.0370
      4 C         140.1177  141.9518  159.4134 C.ar    1  UNL1        0.1386
      5 C         141.1392  141.0839  160.0867 C.ar    1  UNL1        0.0370
      6 C         140.9903  140.7390  161.5388 C.ar    1  UNL1        0.0061
      7 C         138.4752  138.7037  163.1217 C.3     1  UNL1        0.1350
      8 N         138.9988  139.6380  164.1720 N.ar    1  UNL1       -0.2786
      9 C         139.6712  140.9171  163.7701 C.ar    1  UNL1        0.1460
     10 N         140.1948  141.8514  164.8203 N.ar    1  UNL1       -0.2280
     11 C         140.0460  141.5065  166.2725 C.ar    1  UNL1        0.0875
     12 C         140.5696  142.4407  167.3227 C.ar    1  UNL1        0.0193
     13 C         140.4208  142.0958  168.7749 C.ar    1  UNL1        0.0015
     14 C         139.7483  140.8166  169.1768 C.ar    1  UNL1        0.0003
     15 C         139.2247  139.8824  168.1266 C.ar    1  UNL1        0.0063
     16 C         139.3736  140.2273  166.6745 C.ar    1  UNL1        0.0739
     17 C         138.8500  139.2930  165.6242 C.ar    1  UNL1        0.2634
     18 O         138.1775  138.0138  166.0261 O.2     1  UNL1       -0.2669
     19 O         140.2665  142.2967  157.9612 O.3     1  UNL1       -0.4754
     20 C         141.5038  142.9942  157.4789 C.3     1  UNL1        0.2068
     21 C         142.2199  143.9581  158.3778 C.3     1  UNL1        0.0646
     22 C         141.4754  145.1073  158.9902 C.3     1  UNL1        0.0759
     23 N         141.1917  145.1176  160.4631 N.3     1  UNL1       -0.2726
     24 C         140.0028  145.8633  160.9927 C.3     1  UNL1        0.0721
     25 C         139.7191  145.8736  162.4656 C.3     1  UNL1        0.0174
     26 C         140.6243  145.1382  163.4089 C.3     1  UNL1        0.0029
     27 C         141.8132  144.3924  162.8793 C.3     1  UNL1        0.0174
     28 C         142.0969  144.3821  161.4064 C.3     1  UNL1        0.0721
@<TRIPOS>BOND
     1     7     8    1
     2     8     9   ar
     3     9     1    1
     4     1     2   ar
     5     2     3   ar
     6     3     4   ar
     7     4    19    1
     8    19    20    1
     9    20    21    1
    10    21    22    1
    11    22    23    1
    12    23    24    1
    13    24    25    1
    14    25    26    1
    15    26    27    1
    16    27    28    1
    17     4     5   ar
    18     5     6   ar
    19     9    10   ar
    20    10    11   ar
    21    11    12   ar
    22    12    13   ar
    23    13    14   ar
    24    14    15   ar
    25    15    16   ar
    26    16    17   ar
    27    17    18    2
    28    17     8   ar
    29     6     1   ar
    30    16    11   ar
    31    28    23    1
