@<TRIPOS>MOLECULE
*****
 41 46 0 0 0
SMALL
GASTEIGER

@<TRIPOS>ATOM
      1 C         141.2630  141.6005  164.8167 C.ar    1  UNL1        0.0907
      2 C         140.8781  141.2087  166.2125 C.ar    1  UNL1        0.1496
      3 O         139.8746  140.0975  166.1220 O.2     1  UNL1       -0.4533
      4 C         139.6393  139.8025  164.6703 C.ar    1  UNL1        0.1454
      5 C         138.7545  138.8080  163.9788 C.ar    1  UNL1        0.0375
      6 C         138.7279  138.7425  162.4805 C.ar    1  UNL1        0.0031
      7 C         139.5859  139.6714  161.6737 C.ar    1  UNL1       -0.0001
      8 C         140.4707  140.6658  162.3652 C.ar    1  UNL1        0.0033
      9 C         140.4974  140.7314  163.8635 C.ar    1  UNL1        0.0419
     10 C         141.4043  141.8207  167.4768 C.ar    1  UNL1        0.0349
     11 C         140.5322  142.7321  168.2885 C.ar    1  UNL1        0.0053
     12 C         141.0584  143.3441  169.5528 C.ar    1  UNL1        0.0297
     13 C         142.4568  143.0448  170.0055 C.ar    1  UNL1        0.1401
     14 F         142.9830  143.6568  171.2698 F       1  UNL1       -0.2042
     15 C         143.3289  142.1335  169.1938 C.ar    1  UNL1        0.0297
     16 C         142.8027  141.5214  167.9295 C.ar    1  UNL1        0.0053
     17 C         139.5592  139.6057  160.1753 C.ar    1  UNL1       -0.0038
     18 C         138.5076  140.3534  159.4105 C.ar    1  UNL1        0.0042
     19 C         138.4809  140.2878  157.9121 C.ar    1  UNL1        0.0533
     20 C         139.5059  139.4745  157.1786 C.ar    1  UNL1        0.0042
     21 C         140.5575  138.7268  157.9435 C.ar    1  UNL1       -0.0041
     22 C         140.5842  138.7924  159.4418 C.ar    1  UNL1       -0.0218
     23 C         141.6359  138.0447  160.2067 C.3     1  UNL1        0.0310
     24 C         137.4293  141.0355  157.1473 C.2     1  UNL1        0.2460
     25 O         137.2577  142.5111  157.3548 O.2     1  UNL1       -0.2701
     26 N         136.5492  140.3076  156.1749 N.am    1  UNL1       -0.2991
     27 H         136.6618  139.3391  156.0387 H       1  UNL1        0.1500
     28 C         135.4975  141.0552  155.4101 C.3     1  UNL1        0.0924
     29 C         134.8739  141.9792  154.4064 C.3     1  UNL1        0.0258
     30 C         136.3649  141.8226  154.4567 C.3     1  UNL1        0.0258
     31 C         134.2649  140.5476  156.0978 C.ar    1  UNL1        0.0749
     32 C         132.9090  140.9726  155.6171 C.ar    1  UNL1        0.0163
     33 C         131.6765  140.4649  156.3049 C.ar    1  UNL1        0.0029
     34 C         131.7997  139.5323  157.4732 C.ar    1  UNL1        0.0207
     35 C         133.1555  139.1073  157.9538 C.ar    1  UNL1        0.0985
     36 N         134.3882  139.6150  157.2661 N.ar    1  UNL1       -0.2466
     37 C         142.7258  145.0666  163.5532 C.3     1  UNL1        0.1109
     38 N         141.7471  143.9941  163.9298 N.am    1  UNL1       -0.2991
     39 C         142.2417  142.6730  164.4400 C.2     1  UNL1        0.2490
     40 O         143.7148  142.4246  164.5736 O.2     1  UNL1       -0.2700
     41 H         140.7802  144.1572  163.8421 H       1  UNL1        0.1498
@<TRIPOS>BOND
     1    37    38    1
     2    38    39   am
     3    39    40    2
     4    39     1    1
     5     1     2   ar
     6     2    10    1
     7    10    11   ar
     8    11    12   ar
     9    12    13   ar
    10    13    14    1
    11    13    15   ar
    12    15    16   ar
    13     2     3   ar
    14     3     4   ar
    15     4     5   ar
    16     5     6   ar
    17     6     7   ar
    18     7    17    1
    19    17    18   ar
    20    18    19   ar
    21    19    24    1
    22    24    25    2
    23    24    26   am
    24    26    28    1
    25    28    31    1
    26    31    32   ar
    27    32    33   ar
    28    33    34   ar
    29    34    35   ar
    30    35    36   ar
    31    28    29    1
    32    29    30    1
    33    19    20   ar
    34    20    21   ar
    35    21    22   ar
    36    22    23    1
    37     7     8   ar
    38     8     9   ar
    39     9     1   ar
    40    16    10   ar
    41     9     4   ar
    42    22    17   ar
    43    30    28    1
    44    36    31   ar
    45    38    41    1
    46    26    27    1
@<TRIPOS>MOLECULE
*****
 41 46 0 0 0
SMALL
GASTEIGER

@<TRIPOS>ATOM
      1 C         141.4395  141.5879  164.5672 C.ar    1  UNL1        0.0907
      2 C         140.8894  141.6959  165.9585 C.ar    1  UNL1        0.1496
      3 O         139.5156  142.2913  165.8688 O.2     1  UNL1       -0.4533
      4 C         139.2165  142.5513  164.4221 C.ar    1  UNL1        0.1454
      5 C         138.0152  143.1277  163.7333 C.ar    1  UNL1        0.0375
      6 C         138.0029  143.2694  162.2401 C.ar    1  UNL1        0.0031
      7 C         139.1919  142.8347  161.4356 C.ar    1  UNL1       -0.0001
      8 C         140.3933  142.2583  162.1244 C.ar    1  UNL1        0.0033
      9 C         140.4056  142.1166  163.6176 C.ar    1  UNL1        0.0419
     10 C         141.5901  141.2813  167.2183 C.ar    1  UNL1        0.0349
     11 C         141.5405  139.8512  167.6682 C.ar    1  UNL1        0.0053
     12 C         142.2412  139.4366  168.9280 C.ar    1  UNL1        0.0297
     13 C         142.9916  140.4520  169.7378 C.ar    1  UNL1        0.1401
     14 F         143.6923  140.0374  170.9976 F       1  UNL1       -0.2042
     15 C         143.0412  141.8821  169.2879 C.ar    1  UNL1        0.0297
     16 C         142.3405  142.2967  168.0281 C.ar    1  UNL1        0.0053
     17 C         139.1796  142.9764  159.9423 C.ar    1  UNL1       -0.0038
     18 C         138.5036  141.9387  159.0961 C.ar    1  UNL1        0.0042
     19 C         138.4912  142.0804  157.6028 C.ar    1  UNL1        0.0533
     20 C         139.1549  143.2599  156.9559 C.ar    1  UNL1        0.0042
     21 C         139.8309  144.2976  157.8022 C.ar    1  UNL1       -0.0041
     22 C         139.8432  144.1558  159.2954 C.ar    1  UNL1       -0.0218
     23 C         140.5192  145.1935  160.1418 C.3     1  UNL1        0.0310
     24 C         137.8153  141.0428  156.7565 C.2     1  UNL1        0.2460
     25 O         138.1838  139.5965  156.9063 O.2     1  UNL1       -0.2701
     26 N         136.7708  141.4513  155.7604 N.am    1  UNL1       -0.2991
     27 H         136.5289  142.4006  155.6622 H       1  UNL1        0.1500
     28 C         136.0948  140.4137  154.9142 C.3     1  UNL1        0.0924
     29 C         135.8891  139.3831  153.8438 C.3     1  UNL1        0.0258
     30 C         137.2141  140.0739  153.9751 C.3     1  UNL1        0.0258
     31 C         134.7408  140.3931  155.5592 C.ar    1  UNL1        0.0749
     32 C         133.6078  141.1644  154.9497 C.ar    1  UNL1        0.0163
     33 C         132.2538  141.1437  155.5949 C.ar    1  UNL1        0.0029
     34 C         132.0327  140.3518  156.8494 C.ar    1  UNL1        0.0207
     35 C         133.1656  139.5806  157.4589 C.ar    1  UNL1        0.0985
     36 N         134.5197  139.6012  156.8138 N.ar    1  UNL1       -0.2466
     37 C         145.3180  141.4232  163.7425 C.3     1  UNL1        0.1109
     38 N         143.9706  141.9648  164.1183 N.am    1  UNL1       -0.2991
     39 C         142.7869  141.0463  164.1913 C.2     1  UNL1        0.2490
     40 O         142.9506  139.5865  163.8885 O.2     1  UNL1       -0.2700
     41 H         143.8632  142.9230  164.3171 H       1  UNL1        0.1498
@<TRIPOS>BOND
     1    37    38    1
     2    38    39   am
     3    39    40    2
     4    39     1    1
     5     1     2   ar
     6     2    10    1
     7    10    11   ar
     8    11    12   ar
     9    12    13   ar
    10    13    14    1
    11    13    15   ar
    12    15    16   ar
    13     2     3   ar
    14     3     4   ar
    15     4     5   ar
    16     5     6   ar
    17     6     7   ar
    18     7    17    1
    19    17    18   ar
    20    18    19   ar
    21    19    24    1
    22    24    25    2
    23    24    26   am
    24    26    28    1
    25    28    31    1
    26    31    32   ar
    27    32    33   ar
    28    33    34   ar
    29    34    35   ar
    30    35    36   ar
    31    28    29    1
    32    29    30    1
    33    19    20   ar
    34    20    21   ar
    35    21    22   ar
    36    22    23    1
    37     7     8   ar
    38     8     9   ar
    39     9     1   ar
    40    16    10   ar
    41     9     4   ar
    42    22    17   ar
    43    30    28    1
    44    36    31   ar
    45    38    41    1
    46    26    27    1
@<TRIPOS>MOLECULE
*****
 41 46 0 0 0
SMALL
GASTEIGER

@<TRIPOS>ATOM
      1 C         141.1965  141.0578  164.1029 C.ar    1  UNL1        0.0907
      2 C         141.6452  140.6297  165.4687 C.ar    1  UNL1        0.1496
      3 O         142.8124  139.7021  165.3035 O.2     1  UNL1       -0.4533
      4 C         143.0851  139.5569  163.8357 C.ar    1  UNL1        0.1454
      5 C         144.1137  138.7701  163.0789 C.ar    1  UNL1        0.0375
      6 C         144.1436  138.8211  161.5801 C.ar    1  UNL1        0.0031
      7 C         143.1449  139.6589  160.8380 C.ar    1  UNL1       -0.0001
      8 C         142.1163  140.4458  161.5948 C.ar    1  UNL1        0.0033
      9 C         142.0864  140.3948  163.0936 C.ar    1  UNL1        0.0419
     10 C         141.0341  141.0546  166.7710 C.ar    1  UNL1        0.0349
     11 C         140.2155  140.0825  167.5678 C.ar    1  UNL1        0.0053
     12 C         139.6043  140.5074  168.8701 C.ar    1  UNL1        0.0297
     13 C         139.8118  141.9043  169.3756 C.ar    1  UNL1        0.1401
     14 F         139.2006  142.3291  170.6779 F       1  UNL1       -0.2042
     15 C         140.6303  142.8763  168.5788 C.ar    1  UNL1        0.0297
     16 C         141.2415  142.4515  167.2765 C.ar    1  UNL1        0.0053
     17 C         143.1749  139.7099  159.3392 C.ar    1  UNL1       -0.0038
     18 C         142.6435  138.5580  158.5388 C.ar    1  UNL1        0.0042
     19 C         142.6735  138.6090  157.0399 C.ar    1  UNL1        0.0533
     20 C         143.2348  139.8119  156.3415 C.ar    1  UNL1        0.0042
     21 C         143.7663  140.9639  157.1419 C.ar    1  UNL1       -0.0041
     22 C         143.7363  140.9129  158.6407 C.ar    1  UNL1       -0.0218
     23 C         144.2677  142.0648  159.4412 C.3     1  UNL1        0.0310
     24 C         142.1420  137.4571  156.2395 C.2     1  UNL1        0.2460
     25 O         140.6959  137.0735  156.3463 O.2     1  UNL1       -0.2701
     26 N         143.0568  136.6887  155.3324 N.am    1  UNL1       -0.2991
     27 H         144.0060  136.9405  155.2624 H       1  UNL1        0.1500
     28 C         142.5254  135.5368  154.5320 C.3     1  UNL1        0.0924
     29 C         141.8781  134.7788  153.4111 C.3     1  UNL1        0.0258
     30 C         142.0072  136.2712  153.3311 C.3     1  UNL1        0.0258
     31 C         142.8590  134.4024  155.4549 C.ar    1  UNL1        0.0749
     32 C         142.2334  133.0554  155.2445 C.ar    1  UNL1        0.0163
     33 C         142.5671  131.9211  156.1674 C.ar    1  UNL1        0.0029
     34 C         143.5264  132.1336  157.3008 C.ar    1  UNL1        0.0207
     35 C         144.1519  133.4805  157.5113 C.ar    1  UNL1        0.0985
     36 N         143.8183  134.6150  156.5883 N.ar    1  UNL1       -0.2466
     37 C         137.5992  142.3603  163.0480 C.3     1  UNL1        0.1109
     38 N         138.7378  141.4321  163.3513 N.am    1  UNL1       -0.2991
     39 C         140.0579  141.9859  163.7996 C.2     1  UNL1        0.2490
     40 O         140.2391  143.4678  163.9445 O.2     1  UNL1       -0.2700
     41 H         138.6188  140.4595  163.2562 H       1  UNL1        0.1498
@<TRIPOS>BOND
     1    37    38    1
     2    38    39   am
     3    39    40    2
     4    39     1    1
     5     1     2   ar
     6     2    10    1
     7    10    11   ar
     8    11    12   ar
     9    12    13   ar
    10    13    14    1
    11    13    15   ar
    12    15    16   ar
    13     2     3   ar
    14     3     4   ar
    15     4     5   ar
    16     5     6   ar
    17     6     7   ar
    18     7    17    1
    19    17    18   ar
    20    18    19   ar
    21    19    24    1
    22    24    25    2
    23    24    26   am
    24    26    28    1
    25    28    31    1
    26    31    32   ar
    27    32    33   ar
    28    33    34   ar
    29    34    35   ar
    30    35    36   ar
    31    28    29    1
    32    29    30    1
    33    19    20   ar
    34    20    21   ar
    35    21    22   ar
    36    22    23    1
    37     7     8   ar
    38     8     9   ar
    39     9     1   ar
    40    16    10   ar
    41     9     4   ar
    42    22    17   ar
    43    30    28    1
    44    36    31   ar
    45    38    41    1
    46    26    27    1
@<TRIPOS>MOLECULE
*****
 41 46 0 0 0
SMALL
GASTEIGER

@<TRIPOS>ATOM
      1 C         141.3949  141.6280  164.8319 C.ar    1  UNL1        0.0907
      2 C         140.9859  141.9595  166.2365 C.ar    1  UNL1        0.1496
      3 O         139.8185  142.8991  166.1698 O.2     1  UNL1       -0.4533
      4 C         139.5060  143.1483  164.7240 C.ar    1  UNL1        0.1454
      5 C         138.4602  143.9890  164.0537 C.ar    1  UNL1        0.0375
      6 C         138.3887  144.0442  162.5564 C.ar    1  UNL1        0.0031
      7 C         139.3629  143.2586  161.7295 C.ar    1  UNL1       -0.0001
      8 C         140.4088  142.4179  162.3999 C.ar    1  UNL1        0.0033
      9 C         140.4803  142.3627  163.8971 C.ar    1  UNL1        0.0419
     10 C         141.6310  141.4422  167.4880 C.ar    1  UNL1        0.0349
     11 C         141.1914  140.1326  168.0722 C.ar    1  UNL1        0.0053
     12 C         141.8365  139.6153  169.3237 C.ar    1  UNL1        0.0297
     13 C         142.9213  140.4077  169.9910 C.ar    1  UNL1        0.1401
     14 F         143.5664  139.8905  171.2425 F       1  UNL1       -0.2042
     15 C         143.3609  141.7174  169.4068 C.ar    1  UNL1        0.0297
     16 C         142.7158  142.2347  168.1552 C.ar    1  UNL1        0.0053
     17 C         139.2914  143.3138  160.2322 C.ar    1  UNL1       -0.0038
     18 C         138.4171  142.3492  159.4871 C.ar    1  UNL1        0.0042
     19 C         138.3456  142.4044  157.9897 C.ar    1  UNL1        0.0533
     20 C         139.1482  143.4243  157.2376 C.ar    1  UNL1        0.0042
     21 C         140.0225  144.3889  157.9828 C.ar    1  UNL1       -0.0041
     22 C         140.0940  144.3336  159.4801 C.ar    1  UNL1       -0.0218
     23 C         140.9683  145.2983  160.2253 C.3     1  UNL1        0.0310
     24 C         137.4713  141.4398  157.2446 C.2     1  UNL1        0.2460
     25 O         136.9130  140.2375  157.9464 O.2     1  UNL1       -0.2701
     26 N         137.1554  141.6776  155.7977 N.am    1  UNL1       -0.2991
     27 H         137.5219  142.4668  155.3370 H       1  UNL1        0.1500
     28 C         136.2812  140.7130  155.0525 C.3     1  UNL1        0.0924
     29 C         135.0449  140.0735  154.4934 C.3     1  UNL1        0.0258
     30 C         134.9351  141.3141  155.3295 C.3     1  UNL1        0.0258
     31 C         137.3237  139.7770  154.5169 C.ar    1  UNL1        0.0749
     32 C         136.9895  138.3321  154.2911 C.ar    1  UNL1        0.0163
     33 C         138.0320  137.3961  153.7554 C.ar    1  UNL1        0.0029
     34 C         139.4087  137.9048  153.4454 C.ar    1  UNL1        0.0207
     35 C         139.7428  139.3495  153.6712 C.ar    1  UNL1        0.0985
     36 N         138.7003  140.2856  154.2069 N.ar    1  UNL1       -0.2466
     37 C         143.3716  138.6023  163.1922 C.3     1  UNL1        0.1109
     38 N         142.2456  139.5093  163.5919 N.am    1  UNL1       -0.2991
     39 C         142.5208  140.7211  164.4322 C.2     1  UNL1        0.2490
     40 O         143.9219  141.0258  164.8726 O.2     1  UNL1       -0.2700
     41 H         141.3260  139.3092  163.3028 H       1  UNL1        0.1498
@<TRIPOS>BOND
     1    37    38    1
     2    38    39   am
     3    39    40    2
     4    39     1    1
     5     1     2   ar
     6     2    10    1
     7    10    11   ar
     8    11    12   ar
     9    12    13   ar
    10    13    14    1
    11    13    15   ar
    12    15    16   ar
    13     2     3   ar
    14     3     4   ar
    15     4     5   ar
    16     5     6   ar
    17     6     7   ar
    18     7    17    1
    19    17    18   ar
    20    18    19   ar
    21    19    24    1
    22    24    25    2
    23    24    26   am
    24    26    28    1
    25    28    31    1
    26    31    32   ar
    27    32    33   ar
    28    33    34   ar
    29    34    35   ar
    30    35    36   ar
    31    28    29    1
    32    29    30    1
    33    19    20   ar
    34    20    21   ar
    35    21    22   ar
    36    22    23    1
    37     7     8   ar
    38     8     9   ar
    39     9     1   ar
    40    16    10   ar
    41     9     4   ar
    42    22    17   ar
    43    30    28    1
    44    36    31   ar
    45    38    41    1
    46    26    27    1
@<TRIPOS>MOLECULE
*****
 41 46 0 0 0
SMALL
GASTEIGER

@<TRIPOS>ATOM
      1 C         140.9728  142.0251  165.4776 C.ar    1  UNL1        0.0907
      2 C         141.7550  142.0705  166.7567 C.ar    1  UNL1        0.1496
      3 O         143.0244  142.8262  166.4972 O.2     1  UNL1       -0.4533
      4 C         143.0267  143.2480  165.0577 C.ar    1  UNL1        0.1454
      5 C         144.0196  144.0190  164.2393 C.ar    1  UNL1        0.0375
      6 C         143.7445  144.2948  162.7908 C.ar    1  UNL1        0.0031
      7 C         142.4765  143.7997  162.1607 C.ar    1  UNL1       -0.0001
      8 C         141.4836  143.0287  162.9791 C.ar    1  UNL1        0.0033
      9 C         141.7587  142.7529  164.4276 C.ar    1  UNL1        0.0419
     10 C         141.3406  141.4661  168.0655 C.ar    1  UNL1        0.0349
     11 C         141.9325  140.1616  168.5101 C.ar    1  UNL1        0.0053
     12 C         141.5181  139.5572  169.8190 C.ar    1  UNL1        0.0297
     13 C         140.5118  140.2574  170.6832 C.ar    1  UNL1        0.1401
     14 F         140.0973  139.6530  171.9920 F       1  UNL1       -0.2042
     15 C         139.9198  141.5619  170.2386 C.ar    1  UNL1        0.0297
     16 C         140.3342  142.1663  168.9298 C.ar    1  UNL1        0.0053
     17 C         142.2014  144.0755  160.7121 C.ar    1  UNL1       -0.0038
     18 C         142.9951  143.3729  159.6509 C.ar    1  UNL1        0.0042
     19 C         142.7200  143.6487  158.2023 C.ar    1  UNL1        0.0533
     20 C         141.6512  144.6273  157.8150 C.ar    1  UNL1        0.0042
     21 C         140.8574  145.3300  158.8763 C.ar    1  UNL1       -0.0041
     22 C         141.1325  145.0541  160.3248 C.ar    1  UNL1       -0.0218
     23 C         140.3388  145.7568  161.3861 C.3     1  UNL1        0.0310
     24 C         143.5138  142.9461  157.1411 C.2     1  UNL1        0.2460
     25 O         143.2122  143.1922  155.6926 O.2     1  UNL1       -0.2701
     26 N         144.6090  141.9972  157.5285 N.am    1  UNL1       -0.2991
     27 H         144.8069  141.8356  158.4793 H       1  UNL1        0.1500
     28 C         145.4028  141.2945  156.4673 C.3     1  UNL1        0.0924
     29 C         146.4849  141.0216  155.4651 C.3     1  UNL1        0.0258
     30 C         146.5088  142.2881  156.2686 C.3     1  UNL1        0.0258
     31 C         144.5725  140.0570  156.2976 C.ar    1  UNL1        0.0749
     32 C         144.5341  139.3554  154.9722 C.ar    1  UNL1        0.0163
     33 C         143.7038  138.1178  154.8025 C.ar    1  UNL1        0.0029
     34 C         142.9117  137.5817  155.9580 C.ar    1  UNL1        0.0207
     35 C         142.9500  138.2831  157.2832 C.ar    1  UNL1        0.0985
     36 N         143.7804  139.5208  157.4531 N.ar    1  UNL1       -0.2466
     37 C         138.1367  139.2503  165.3906 C.3     1  UNL1        0.1109
     38 N         139.4708  139.9079  165.5854 N.am    1  UNL1       -0.2991
     39 C         139.6388  141.3675  165.2828 C.2     1  UNL1        0.2490
     40 O         138.4728  142.1693  164.7853 O.2     1  UNL1       -0.2700
     41 H         140.2360  139.3816  165.9120 H       1  UNL1        0.1498
@<TRIPOS>BOND
     1    37    38    1
     2    38    39   am
     3    39    40    2
     4    39     1    1
     5     1     2   ar
     6     2    10    1
     7    10    11   ar
     8    11    12   ar
     9    12    13   ar
    10    13    14    1
    11    13    15   ar
    12    15    16   ar
    13     2     3   ar
    14     3     4   ar
    15     4     5   ar
    16     5     6   ar
    17     6     7   ar
    18     7    17    1
    19    17    18   ar
    20    18    19   ar
    21    19    24    1
    22    24    25    2
    23    24    26   am
    24    26    28    1
    25    28    31    1
    26    31    32   ar
    27    32    33   ar
    28    33    34   ar
    29    34    35   ar
    30    35    36   ar
    31    28    29    1
    32    29    30    1
    33    19    20   ar
    34    20    21   ar
    35    21    22   ar
    36    22    23    1
    37     7     8   ar
    38     8     9   ar
    39     9     1   ar
    40    16    10   ar
    41     9     4   ar
    42    22    17   ar
    43    30    28    1
    44    36    31   ar
    45    38    41    1
    46    26    27    1
@<TRIPOS>MOLECULE
*****
 41 46 0 0 0
SMALL
GASTEIGER

@<TRIPOS>ATOM
      1 C         142.4165  133.8504  155.8130 C.ar    1  UNL1        0.0907
      2 C         141.7309  133.4298  154.5469 C.ar    1  UNL1        0.1496
      3 O         141.0458  134.6327  153.9692 O.2     1  UNL1       -0.4533
      4 C         141.3080  135.7967  154.8783 C.ar    1  UNL1        0.1454
      5 C         140.8847  137.2343  154.8157 C.ar    1  UNL1        0.0375
      6 C         141.3087  138.1885  155.8926 C.ar    1  UNL1        0.0031
      7 C         142.1558  137.7050  157.0322 C.ar    1  UNL1       -0.0001
      8 C         142.5791  136.2673  157.0948 C.ar    1  UNL1        0.0033
      9 C         142.1551  135.3132  156.0179 C.ar    1  UNL1        0.0419
     10 C         141.7305  132.0489  153.9613 C.ar    1  UNL1        0.0349
     11 C         140.5647  131.1348  154.1965 C.ar    1  UNL1        0.0053
     12 C         140.5642  129.7539  153.6108 C.ar    1  UNL1        0.0297
     13 C         141.7296  129.2870  152.7900 C.ar    1  UNL1        0.1401
     14 F         141.7292  127.9060  152.2044 F       1  UNL1       -0.2042
     15 C         142.8954  130.2010  152.5548 C.ar    1  UNL1        0.0297
     16 C         142.8958  131.5820  153.1404 C.ar    1  UNL1        0.0053
     17 C         142.5798  138.6592  158.1091 C.ar    1  UNL1       -0.0038
     18 C         142.0566  138.4949  159.5053 C.ar    1  UNL1        0.0042
     19 C         142.4806  139.4492  160.5822 C.ar    1  UNL1        0.0533
     20 C         143.4277  140.5677  160.2630 C.ar    1  UNL1        0.0042
     21 C         143.9508  140.7320  158.8667 C.ar    1  UNL1       -0.0041
     22 C         143.5269  139.7777  157.7898 C.ar    1  UNL1       -0.0218
     23 C         144.0501  139.9420  156.3936 C.3     1  UNL1        0.0310
     24 C         141.9574  139.2849  161.9784 C.2     1  UNL1        0.2460
     25 O         142.7628  139.7778  163.1439 O.2     1  UNL1       -0.2701
     26 N         140.6289  138.6277  162.2090 N.am    1  UNL1       -0.2991
     27 H         140.1004  138.3042  161.4440 H       1  UNL1        0.1500
     28 C         140.1058  138.4634  163.6052 C.3     1  UNL1        0.0924
     29 C         139.8597  137.8603  164.9563 C.3     1  UNL1        0.0258
     30 C         140.7219  137.1427  163.9604 C.3     1  UNL1        0.0258
     31 C         139.3080  139.7270  163.7348 C.ar    1  UNL1        0.0749
     32 C         139.6474  140.7218  164.8050 C.ar    1  UNL1        0.0163
     33 C         138.8496  141.9854  164.9346 C.ar    1  UNL1        0.0029
     34 C         137.7124  142.2543  163.9940 C.ar    1  UNL1        0.0207
     35 C         137.3731  141.2596  162.9239 C.ar    1  UNL1        0.0985
     36 N         138.1709  139.9959  162.7943 N.ar    1  UNL1       -0.2466
     37 C         145.4335  132.4548  157.9811 C.3     1  UNL1        0.1109
     38 N         144.6279  133.3413  157.0783 N.am    1  UNL1       -0.2991
     39 C         143.2221  132.9638  156.7158 C.2     1  UNL1        0.2490
     40 O         142.6220  131.6998  157.2562 O.2     1  UNL1       -0.2700
     41 H         145.0218  134.1710  156.7236 H       1  UNL1        0.1498
@<TRIPOS>BOND
     1    37    38    1
     2    38    39   am
     3    39    40    2
     4    39     1    1
     5     1     2   ar
     6     2    10    1
     7    10    11   ar
     8    11    12   ar
     9    12    13   ar
    10    13    14    1
    11    13    15   ar
    12    15    16   ar
    13     2     3   ar
    14     3     4   ar
    15     4     5   ar
    16     5     6   ar
    17     6     7   ar
    18     7    17    1
    19    17    18   ar
    20    18    19   ar
    21    19    24    1
    22    24    25    2
    23    24    26   am
    24    26    28    1
    25    28    31    1
    26    31    32   ar
    27    32    33   ar
    28    33    34   ar
    29    34    35   ar
    30    35    36   ar
    31    28    29    1
    32    29    30    1
    33    19    20   ar
    34    20    21   ar
    35    21    22   ar
    36    22    23    1
    37     7     8   ar
    38     8     9   ar
    39     9     1   ar
    40    16    10   ar
    41     9     4   ar
    42    22    17   ar
    43    30    28    1
    44    36    31   ar
    45    38    41    1
    46    26    27    1
@<TRIPOS>MOLECULE
*****
 41 46 0 0 0
SMALL
GASTEIGER

@<TRIPOS>ATOM
      1 C         141.7394  138.3407  156.1671 C.ar    1  UNL1        0.0907
      2 C         142.9288  137.4782  155.8649 C.ar    1  UNL1        0.1496
      3 O         144.1651  138.2932  156.1041 O.2     1  UNL1       -0.4533
      4 C         143.7398  139.6595  156.5540 C.ar    1  UNL1        0.1454
      5 C         144.5239  140.8806  156.9333 C.ar    1  UNL1        0.0375
      6 C         143.8089  142.1311  157.3515 C.ar    1  UNL1        0.0031
      7 C         142.3097  142.1604  157.3904 C.ar    1  UNL1       -0.0001
      8 C         141.5255  140.9393  157.0112 C.ar    1  UNL1        0.0033
      9 C         142.2406  139.6888  156.5930 C.ar    1  UNL1        0.0419
     10 C         142.8889  136.0511  155.4045 C.ar    1  UNL1        0.0349
     11 C         142.3574  135.7172  154.0422 C.ar    1  UNL1        0.0053
     12 C         142.3175  134.2902  153.5818 C.ar    1  UNL1        0.0297
     13 C         142.8091  133.1971  154.4836 C.ar    1  UNL1        0.1401
     14 F         142.7693  131.7700  154.0232 F       1  UNL1       -0.2042
     15 C         143.3407  133.5310  155.8459 C.ar    1  UNL1        0.0297
     16 C         143.3806  134.9581  156.3064 C.ar    1  UNL1        0.0053
     17 C         141.5946  143.4110  157.8087 C.ar    1  UNL1       -0.0038
     18 C         141.3148  143.6652  159.2602 C.ar    1  UNL1        0.0042
     19 C         140.5997  144.9158  159.6785 C.ar    1  UNL1        0.0533
     20 C         140.1645  145.9121  158.6451 C.ar    1  UNL1        0.0042
     21 C         140.4444  145.6579  157.1934 C.ar    1  UNL1       -0.0041
     22 C         141.1594  144.4074  156.7753 C.ar    1  UNL1       -0.0218
     23 C         141.4392  144.1531  155.3237 C.3     1  UNL1        0.0310
     24 C         140.3199  145.1699  161.1300 C.2     1  UNL1        0.2460
     25 O         139.9820  146.5546  161.5974 O.2     1  UNL1       -0.2701
     26 N         140.3781  144.0394  162.1142 N.am    1  UNL1       -0.2991
     27 H         140.5998  143.1306  161.8074 H       1  UNL1        0.1500
     28 C         140.0982  144.2936  163.5657 C.3     1  UNL1        0.0924
     29 C         139.3417  144.6183  164.8196 C.3     1  UNL1        0.0258
     30 C         138.6283  144.5851  163.5005 C.3     1  UNL1        0.0258
     31 C         141.4710  144.0904  164.1351 C.ar    1  UNL1        0.0749
     32 C         142.5650  145.0677  163.8221 C.ar    1  UNL1        0.0163
     33 C         143.9378  144.8644  164.3915 C.ar    1  UNL1        0.0029
     34 C         144.2165  143.6839  165.2740 C.ar    1  UNL1        0.0207
     35 C         143.1225  142.7067  165.5870 C.ar    1  UNL1        0.0985
     36 N         141.7497  142.9099  165.0176 N.ar    1  UNL1       -0.2466
     37 C         138.1887  137.4801  154.6171 C.3     1  UNL1        0.1109
     38 N         139.6269  137.8932  154.7223 N.am    1  UNL1       -0.2991
     39 C         140.3012  137.9277  156.0619 C.2     1  UNL1        0.2490
     40 O         139.5374  137.5491  157.2960 O.2     1  UNL1       -0.2700
     41 H         140.1282  138.1416  153.9123 H       1  UNL1        0.1498
@<TRIPOS>BOND
     1    37    38    1
     2    38    39   am
     3    39    40    2
     4    39     1    1
     5     1     2   ar
     6     2    10    1
     7    10    11   ar
     8    11    12   ar
     9    12    13   ar
    10    13    14    1
    11    13    15   ar
    12    15    16   ar
    13     2     3   ar
    14     3     4   ar
    15     4     5   ar
    16     5     6   ar
    17     6     7   ar
    18     7    17    1
    19    17    18   ar
    20    18    19   ar
    21    19    24    1
    22    24    25    2
    23    24    26   am
    24    26    28    1
    25    28    31    1
    26    31    32   ar
    27    32    33   ar
    28    33    34   ar
    29    34    35   ar
    30    35    36   ar
    31    28    29    1
    32    29    30    1
    33    19    20   ar
    34    20    21   ar
    35    21    22   ar
    36    22    23    1
    37     7     8   ar
    38     8     9   ar
    39     9     1   ar
    40    16    10   ar
    41     9     4   ar
    42    22    17   ar
    43    30    28    1
    44    36    31   ar
    45    38    41    1
    46    26    27    1
@<TRIPOS>MOLECULE
*****
 41 46 0 0 0
SMALL
GASTEIGER

@<TRIPOS>ATOM
      1 C         142.4068  133.6951  155.6447 C.ar    1  UNL1        0.0907
      2 C         141.8487  133.2209  154.3357 C.ar    1  UNL1        0.1496
      3 O         141.1346  134.3723  153.6919 O.2     1  UNL1       -0.4533
      4 C         141.2514  135.5581  154.6031 C.ar    1  UNL1        0.1454
      5 C         140.7434  136.9649  154.4897 C.ar    1  UNL1        0.0375
      6 C         141.0217  137.9531  155.5833 C.ar    1  UNL1        0.0031
      7 C         141.8080  137.5346  156.7902 C.ar    1  UNL1       -0.0001
      8 C         142.3160  136.1278  156.9035 C.ar    1  UNL1        0.0033
      9 C         142.0377  135.1396  155.8100 C.ar    1  UNL1        0.0419
     10 C         141.9813  131.8381  153.7697 C.ar    1  UNL1        0.0349
     11 C         140.8795  130.8391  153.9647 C.ar    1  UNL1        0.0053
     12 C         141.0121  129.4563  153.3988 C.ar    1  UNL1        0.0297
     13 C         142.2465  129.0725  152.6379 C.ar    1  UNL1        0.1401
     14 F         142.3791  127.6897  152.0720 F       1  UNL1       -0.2042
     15 C         143.3483  130.0715  152.4429 C.ar    1  UNL1        0.0297
     16 C         143.2156  131.4543  153.0089 C.ar    1  UNL1        0.0053
     17 C         142.0863  138.5229  157.8838 C.ar    1  UNL1       -0.0038
     18 C         141.2889  138.4808  159.1535 C.ar    1  UNL1        0.0042
     19 C         141.5672  139.4691  160.2471 C.ar    1  UNL1        0.0533
     20 C         142.6429  140.4996  160.0708 C.ar    1  UNL1        0.0042
     21 C         143.4403  140.5417  158.8010 C.ar    1  UNL1       -0.0041
     22 C         143.1620  139.5534  157.7075 C.ar    1  UNL1       -0.0218
     23 C         143.9594  139.5955  156.4376 C.3     1  UNL1        0.0310
     24 C         140.7698  139.4270  161.5168 C.2     1  UNL1        0.2460
     25 O         139.9416  140.6102  161.9219 O.2     1  UNL1       -0.2701
     26 N         140.8005  138.2017  162.3815 N.am    1  UNL1       -0.2991
     27 H         141.3441  137.4251  162.1156 H       1  UNL1        0.1500
     28 C         140.0031  138.1596  163.6513 C.3     1  UNL1        0.0924
     29 C         138.8524  137.9321  164.5861 C.3     1  UNL1        0.0258
     30 C         138.7087  137.6112  163.1279 C.3     1  UNL1        0.0258
     31 C         141.0205  138.6933  164.6156 C.ar    1  UNL1        0.0749
     32 C         142.2379  137.8819  164.9469 C.ar    1  UNL1        0.0163
     33 C         143.2553  138.4157  165.9113 C.ar    1  UNL1        0.0029
     34 C         143.0553  139.7607  166.5444 C.ar    1  UNL1        0.0207
     35 C         141.8381  140.5720  166.2131 C.ar    1  UNL1        0.0985
     36 N         140.8206  140.0383  165.2487 N.ar    1  UNL1       -0.2466
     37 C         145.3580  132.4824  158.0048 C.3     1  UNL1        0.1109
     38 N         144.5692  133.3077  157.0318 N.am    1  UNL1       -0.2991
     39 C         143.1956  132.8698  156.6177 C.2     1  UNL1        0.2490
     40 O         142.6109  131.6066  157.1765 O.2     1  UNL1       -0.2700
     41 H         144.9531  134.1368  156.6651 H       1  UNL1        0.1498
@<TRIPOS>BOND
     1    37    38    1
     2    38    39   am
     3    39    40    2
     4    39     1    1
     5     1     2   ar
     6     2    10    1
     7    10    11   ar
     8    11    12   ar
     9    12    13   ar
    10    13    14    1
    11    13    15   ar
    12    15    16   ar
    13     2     3   ar
    14     3     4   ar
    15     4     5   ar
    16     5     6   ar
    17     6     7   ar
    18     7    17    1
    19    17    18   ar
    20    18    19   ar
    21    19    24    1
    22    24    25    2
    23    24    26   am
    24    26    28    1
    25    28    31    1
    26    31    32   ar
    27    32    33   ar
    28    33    34   ar
    29    34    35   ar
    30    35    36   ar
    31    28    29    1
    32    29    30    1
    33    19    20   ar
    34    20    21   ar
    35    21    22   ar
    36    22    23    1
    37     7     8   ar
    38     8     9   ar
    39     9     1   ar
    40    16    10   ar
    41     9     4   ar
    42    22    17   ar
    43    30    28    1
    44    36    31   ar
    45    38    41    1
    46    26    27    1
@<TRIPOS>MOLECULE
*****
 41 46 0 0 0
SMALL
GASTEIGER

@<TRIPOS>ATOM
      1 C         142.2618  138.0910  155.8898 C.ar    1  UNL1        0.0907
      2 C         143.3652  137.1491  155.5084 C.ar    1  UNL1        0.1496
      3 O         144.6581  137.9085  155.5506 O.2     1  UNL1       -0.4533
      4 C         144.3538  139.3197  155.9581 C.ar    1  UNL1        0.1454
      5 C         145.2339  140.5165  156.1653 C.ar    1  UNL1        0.0375
      6 C         144.6330  141.8261  156.5822 C.ar    1  UNL1        0.0031
      7 C         143.1520  141.9389  156.7918 C.ar    1  UNL1       -0.0001
      8 C         142.2719  140.7421  156.5846 C.ar    1  UNL1        0.0033
      9 C         142.8728  139.4325  156.1677 C.ar    1  UNL1        0.0419
     10 C         143.2039  135.7020  155.1480 C.ar    1  UNL1        0.0349
     11 C         142.4724  135.3178  153.8962 C.ar    1  UNL1        0.0053
     12 C         142.3112  133.8707  153.5359 C.ar    1  UNL1        0.0297
     13 C         142.8815  132.8078  154.4274 C.ar    1  UNL1        0.1401
     14 F         142.7203  131.3606  154.0670 F       1  UNL1       -0.2042
     15 C         143.6131  133.1920  155.6792 C.ar    1  UNL1        0.0297
     16 C         143.7743  134.6391  156.0395 C.ar    1  UNL1        0.0053
     17 C         142.5511  143.2486  157.2087 C.ar    1  UNL1       -0.0038
     18 C         142.0047  143.4154  158.5956 C.ar    1  UNL1        0.0042
     19 C         141.4038  144.7251  159.0125 C.ar    1  UNL1        0.0533
     20 C         141.3494  145.8679  158.0425 C.ar    1  UNL1        0.0042
     21 C         141.8959  145.7010  156.6555 C.ar    1  UNL1       -0.0041
     22 C         142.4967  144.3914  156.2387 C.ar    1  UNL1       -0.0218
     23 C         143.0432  144.2245  154.8517 C.3     1  UNL1        0.0310
     24 C         140.8574  144.8919  160.3994 C.2     1  UNL1        0.2460
     25 O         139.7630  145.8840  160.6600 O.2     1  UNL1       -0.2701
     26 N         141.4054  144.0667  161.5258 N.am    1  UNL1       -0.2991
     27 H         142.1237  143.4155  161.3547 H       1  UNL1        0.1500
     28 C         140.8590  144.2335  162.9127 C.3     1  UNL1        0.0924
     29 C         140.6873  144.7622  164.3059 C.3     1  UNL1        0.0258
     30 C         141.7483  145.3333  163.4124 C.3     1  UNL1        0.0258
     31 C         139.7800  143.1918  162.8946 C.ar    1  UNL1        0.0749
     32 C         138.4419  143.4872  163.5048 C.ar    1  UNL1        0.0163
     33 C         137.3629  142.4454  163.4867 C.ar    1  UNL1        0.0029
     34 C         137.6219  141.1081  162.8585 C.ar    1  UNL1        0.0207
     35 C         138.9599  140.8127  162.2483 C.ar    1  UNL1        0.0985
     36 N         140.0390  141.8545  162.2664 N.ar    1  UNL1       -0.2466
     37 C         138.5150  137.3397  154.8184 C.3     1  UNL1        0.1109
     38 N         139.9734  137.6796  154.7304 N.am    1  UNL1       -0.2991
     39 C         140.8035  137.7511  155.9778 C.2     1  UNL1        0.2490
     40 O         140.1752  137.4827  157.3131 O.2     1  UNL1       -0.2700
     41 H         140.3857  137.8558  153.8539 H       1  UNL1        0.1498
@<TRIPOS>BOND
     1    37    38    1
     2    38    39   am
     3    39    40    2
     4    39     1    1
     5     1     2   ar
     6     2    10    1
     7    10    11   ar
     8    11    12   ar
     9    12    13   ar
    10    13    14    1
    11    13    15   ar
    12    15    16   ar
    13     2     3   ar
    14     3     4   ar
    15     4     5   ar
    16     5     6   ar
    17     6     7   ar
    18     7    17    1
    19    17    18   ar
    20    18    19   ar
    21    19    24    1
    22    24    25    2
    23    24    26   am
    24    26    28    1
    25    28    31    1
    26    31    32   ar
    27    32    33   ar
    28    33    34   ar
    29    34    35   ar
    30    35    36   ar
    31    28    29    1
    32    29    30    1
    33    19    20   ar
    34    20    21   ar
    35    21    22   ar
    36    22    23    1
    37     7     8   ar
    38     8     9   ar
    39     9     1   ar
    40    16    10   ar
    41     9     4   ar
    42    22    17   ar
    43    30    28    1
    44    36    31   ar
    45    38    41    1
    46    26    27    1
