@<TRIPOS>MOLECULE
*****
 30 33 0 0 0
SMALL
GASTEIGER

@<TRIPOS>ATOM
      1 C         138.4575  138.7327  161.3997 C.3     1  UNL1        0.0992
      2 C         138.4378  139.0618  165.8876 C.ar    1  UNL1        0.0001
      3 C         138.0359  140.2378  165.0476 C.ar    1  UNL1       -0.0003
      4 C         138.0425  140.1280  163.5516 C.ar    1  UNL1       -0.0029
      5 C         138.4509  138.8424  162.8956 C.ar    1  UNL1       -0.0061
      6 C         138.8528  137.6664  163.7356 C.ar    1  UNL1       -0.0029
      7 C         138.8462  137.7761  165.2317 C.ar    1  UNL1       -0.0003
      8 C         139.4173  140.0661  168.0744 C.2     1  UNL1        0.0598
      9 C         138.4313  139.1715  167.3836 C.2     1  UNL1        0.0047
     10 O         138.1345  139.9717  170.3317 O.2     1  UNL1       -0.2681
     11 C         139.4107  140.1757  169.5703 C.2     1  UNL1        0.2679
     12 N         140.6803  140.4892  170.3050 N.am    1  UNL1       -0.1934
     13 O         140.6738  140.5988  171.8009 O.3     1  UNL1       -0.2949
     14 H         141.5180  140.6231  169.8053 H       1  UNL1        0.1825
     15 H         139.7763  140.4403  172.1328 H       1  UNL1        0.2414
     16 N         139.3598  139.6132  160.5870 N.3     1  UNL1       -0.2687
     17 C         139.1196  139.7791  159.1157 C.3     1  UNL1        0.0724
     18 C         140.0219  140.6596  158.3030 C.3     1  UNL1        0.0177
     19 C         141.1645  141.3743  158.9617 C.3     1  UNL1        0.0072
     20 C         141.4047  141.2085  160.4331 C.3     1  UNL1        0.0399
     21 C         140.5023  140.3279  161.2456 C.3     1  UNL1        0.0768
     22 C         142.5472  141.9232  161.0917 C.2     1  UNL1       -0.0009
     23 C         142.9492  143.3488  160.8553 C.2     1  UNL1        0.0942
     24 N         144.1388  143.6444  161.7199 N.2     1  UNL1       -0.2482
     25 C         144.4720  142.4014  162.4906 C.2     1  UNL1        0.0631
     26 C         145.5440  142.1008  163.4958 C.3     1  UNL1        0.0717
     27 C         145.6323  140.7365  164.1128 C.2     1  UNL1       -0.0198
     28 C         144.6486  139.6727  163.7245 C.2     1  UNL1       -0.0042
     29 C         143.5766  139.9733  162.7194 C.2     1  UNL1        0.0006
     30 C         143.4883  141.3376  162.1024 C.2     1  UNL1        0.0114
@<TRIPOS>BOND
     1    10    11    2
     2    11     8    1
     3     8     9    2
     4     9     2    1
     5     2     3   ar
     6     3     4   ar
     7     4     5   ar
     8     5     1    1
     9     1    16    1
    10    16    17    1
    11    17    18    1
    12    18    19    1
    13    19    20    1
    14    20    22    1
    15    22    23    2
    16    23    24    1
    17    24    25    2
    18    25    26    1
    19    26    27    1
    20    27    28    2
    21    28    29    1
    22    29    30    2
    23    20    21    1
    24     5     6   ar
    25     6     7   ar
    26    11    12   am
    27    12    13    1
    28     7     2   ar
    29    21    16    1
    30    30    22    1
    31    30    25    1
    32    12    14    1
    33    13    15    1
@<TRIPOS>MOLECULE
*****
 30 33 0 0 0
SMALL
GASTEIGER

@<TRIPOS>ATOM
      1 C         138.5213  138.7507  161.4290 C.3     1  UNL1        0.0992
      2 C         138.4415  139.0705  165.9169 C.ar    1  UNL1        0.0001
      3 C         138.0584  140.2506  165.0740 C.ar    1  UNL1       -0.0003
      4 C         138.0850  140.1440  163.5780 C.ar    1  UNL1       -0.0029
      5 C         138.4948  138.8572  162.9249 C.ar    1  UNL1       -0.0061
      6 C         138.8779  137.6771  163.7679 C.ar    1  UNL1       -0.0029
      7 C         138.8513  137.7838  165.2639 C.ar    1  UNL1       -0.0003
      8 C         139.4127  140.0450  168.1209 C.2     1  UNL1        0.0598
      9 C         138.4150  139.1771  167.4129 C.2     1  UNL1        0.0047
     10 O         138.0997  139.9461  170.3605 O.2     1  UNL1       -0.2681
     11 C         139.3860  140.1515  169.6168 C.2     1  UNL1        0.2679
     12 N         140.6457  140.4633  170.3691 N.am    1  UNL1       -0.1934
     13 O         140.6192  140.5699  171.8650 O.3     1  UNL1       -0.2949
     14 H         141.4900  140.5981  169.8809 H       1  UNL1        0.1825
     15 H         139.7172  140.4108  172.1845 H       1  UNL1        0.2414
     16 N         139.6273  139.3991  160.6504 N.3     1  UNL1       -0.2687
     17 C         139.7048  139.2165  159.1636 C.3     1  UNL1        0.0724
     18 C         140.8109  139.8649  158.3849 C.3     1  UNL1        0.0177
     19 C         141.8394  140.6960  159.0931 C.3     1  UNL1        0.0072
     20 C         141.7618  140.8786  160.5800 C.3     1  UNL1        0.0399
     21 C         140.6559  140.2302  161.3586 C.3     1  UNL1        0.0768
     22 C         142.7904  141.7096  161.2882 C.2     1  UNL1       -0.0009
     23 C         144.2689  141.4576  161.3041 C.2     1  UNL1        0.0942
     24 N         144.9132  142.5309  162.1306 N.2     1  UNL1       -0.2482
     25 C         143.8328  143.4462  162.6255 C.2     1  UNL1        0.0631
     26 C         143.8742  144.6762  163.4830 C.3     1  UNL1        0.0717
     27 C         142.6036  145.3987  163.8198 C.2     1  UNL1       -0.0198
     28 C         141.2916  144.8911  163.2992 C.2     1  UNL1       -0.0042
     29 C         141.2502  143.6611  162.4418 C.2     1  UNL1        0.0006
     30 C         142.5208  142.9386  162.1049 C.2     1  UNL1        0.0114
@<TRIPOS>BOND
     1    10    11    2
     2    11     8    1
     3     8     9    2
     4     9     2    1
     5     2     3   ar
     6     3     4   ar
     7     4     5   ar
     8     5     1    1
     9     1    16    1
    10    16    17    1
    11    17    18    1
    12    18    19    1
    13    19    20    1
    14    20    22    1
    15    22    23    2
    16    23    24    1
    17    24    25    2
    18    25    26    1
    19    26    27    1
    20    27    28    2
    21    28    29    1
    22    29    30    2
    23    20    21    1
    24     5     6   ar
    25     6     7   ar
    26    11    12   am
    27    12    13    1
    28     7     2   ar
    29    21    16    1
    30    30    22    1
    31    30    25    1
    32    12    14    1
    33    13    15    1
@<TRIPOS>MOLECULE
*****
 30 33 0 0 0
SMALL
GASTEIGER

@<TRIPOS>ATOM
      1 C         138.1186  138.1619  162.0467 C.3     1  UNL1        0.0992
      2 C         139.2954  140.0336  165.9661 C.ar    1  UNL1        0.0001
      3 C         138.5483  140.8390  164.9448 C.ar    1  UNL1       -0.0003
      4 C         138.1560  140.2150  163.6383 C.ar    1  UNL1       -0.0029
      5 C         138.5109  138.7857  163.3532 C.ar    1  UNL1       -0.0061
      6 C         139.2580  137.9804  164.3745 C.ar    1  UNL1       -0.0029
      7 C         139.6503  138.6043  165.6811 C.ar    1  UNL1       -0.0003
      8 C         139.3263  139.9846  168.5636 C.2     1  UNL1        0.0598
      9 C         139.6877  140.6575  167.2726 C.2     1  UNL1        0.0047
     10 O         139.6866  142.0998  170.0285 O.2     1  UNL1       -0.2681
     11 C         139.7186  140.6086  169.8700 C.2     1  UNL1        0.2679
     12 N         140.1429  139.7412  171.0179 N.am    1  UNL1       -0.1934
     13 O         140.5353  140.3651  172.3243 O.3     1  UNL1       -0.2949
     14 H         140.1639  138.7625  170.9138 H       1  UNL1        0.1825
     15 H         140.4592  141.3298  172.2577 H       1  UNL1        0.2414
     16 N         138.4779  138.8359  160.7558 N.3     1  UNL1       -0.2687
     17 C         137.5502  139.8507  160.1560 C.3     1  UNL1        0.0724
     18 C         137.9096  140.5247  158.8650 C.3     1  UNL1        0.0177
     19 C         139.1966  140.1841  158.1739 C.3     1  UNL1        0.0072
     20 C         140.1243  139.1693  158.7738 C.3     1  UNL1        0.0399
     21 C         139.7649  138.4953  160.0647 C.3     1  UNL1        0.0768
     22 C         141.4112  138.8286  158.0826 C.2     1  UNL1       -0.0009
     23 C         142.7494  139.4491  158.3551 C.2     1  UNL1        0.0942
     24 N         143.7511  138.8116  157.4385 N.2     1  UNL1       -0.2482
     25 C         143.0321  137.7971  156.5997 C.2     1  UNL1        0.0631
     26 C         143.5074  136.8651  155.5248 C.3     1  UNL1        0.0717
     27 C         142.5364  135.9436  154.8479 C.2     1  UNL1       -0.0198
     28 C         141.0903  135.9541  155.2460 C.2     1  UNL1       -0.0042
     29 C         140.6150  136.8861  156.3209 C.2     1  UNL1        0.0006
     30 C         141.5859  137.8076  156.9977 C.2     1  UNL1        0.0114
@<TRIPOS>BOND
     1    10    11    2
     2    11     8    1
     3     8     9    2
     4     9     2    1
     5     2     3   ar
     6     3     4   ar
     7     4     5   ar
     8     5     1    1
     9     1    16    1
    10    16    17    1
    11    17    18    1
    12    18    19    1
    13    19    20    1
    14    20    22    1
    15    22    23    2
    16    23    24    1
    17    24    25    2
    18    25    26    1
    19    26    27    1
    20    27    28    2
    21    28    29    1
    22    29    30    2
    23    20    21    1
    24     5     6   ar
    25     6     7   ar
    26    11    12   am
    27    12    13    1
    28     7     2   ar
    29    21    16    1
    30    30    22    1
    31    30    25    1
    32    12    14    1
    33    13    15    1
@<TRIPOS>MOLECULE
*****
 30 33 0 0 0
SMALL
GASTEIGER

@<TRIPOS>ATOM
      1 C         139.0461  137.8329  163.3491 C.3     1  UNL1        0.0992
      2 C         139.7769  139.5615  167.4391 C.ar    1  UNL1        0.0001
      3 C         140.9070  139.4498  166.4592 C.ar    1  UNL1       -0.0003
      4 C         140.6634  138.8736  165.0959 C.ar    1  UNL1       -0.0029
      5 C         139.2896  138.4090  164.7124 C.ar    1  UNL1       -0.0061
      6 C         138.1595  138.5207  165.6923 C.ar    1  UNL1       -0.0029
      7 C         138.4031  139.0970  167.0557 C.ar    1  UNL1       -0.0003
      8 C         140.4905  141.5549  168.9447 C.2     1  UNL1        0.0598
      9 C         140.0204  140.1377  168.8024 C.2     1  UNL1        0.0047
     10 O         139.6804  142.9717  170.9662 O.2     1  UNL1       -0.2681
     11 C         140.7340  142.1311  170.3080 C.2     1  UNL1        0.2679
     12 N         142.0312  141.8665  171.0133 N.am    1  UNL1       -0.1934
     13 O         142.2748  142.4425  172.3766 O.3     1  UNL1       -0.2949
     14 H         142.7227  141.3147  170.5813 H       1  UNL1        0.1825
     15 H         141.4998  142.9558  172.6540 H       1  UNL1        0.2414
     16 N         139.2827  138.6706  162.1275 N.3     1  UNL1       -0.2687
     17 C         139.3439  138.0244  160.7753 C.3     1  UNL1        0.0724
     18 C         139.5805  138.8621  159.5537 C.3     1  UNL1        0.0177
     19 C         139.7559  140.3460  159.6844 C.3     1  UNL1        0.0072
     20 C         139.6947  140.9923  161.0367 C.3     1  UNL1        0.0399
     21 C         139.4581  140.1546  162.2582 C.3     1  UNL1        0.0768
     22 C         139.8701  142.4763  161.1674 C.2     1  UNL1       -0.0009
     23 C         139.2364  143.5192  160.2953 C.2     1  UNL1        0.0942
     24 N         139.6847  144.8653  160.7821 N.2     1  UNL1       -0.2482
     25 C         140.5955  144.6543  161.9551 C.2     1  UNL1        0.0631
     26 C         141.3353  145.6159  162.8371 C.3     1  UNL1        0.0717
     27 C         142.1897  145.1010  163.9573 C.2     1  UNL1       -0.0198
     28 C         142.3043  143.6245  164.1955 C.2     1  UNL1       -0.0042
     29 C         141.5645  142.6629  163.3135 C.2     1  UNL1        0.0006
     30 C         140.7101  143.1778  162.1933 C.2     1  UNL1        0.0114
@<TRIPOS>BOND
     1    10    11    2
     2    11     8    1
     3     8     9    2
     4     9     2    1
     5     2     3   ar
     6     3     4   ar
     7     4     5   ar
     8     5     1    1
     9     1    16    1
    10    16    17    1
    11    17    18    1
    12    18    19    1
    13    19    20    1
    14    20    22    1
    15    22    23    2
    16    23    24    1
    17    24    25    2
    18    25    26    1
    19    26    27    1
    20    27    28    2
    21    28    29    1
    22    29    30    2
    23    20    21    1
    24     5     6   ar
    25     6     7   ar
    26    11    12   am
    27    12    13    1
    28     7     2   ar
    29    21    16    1
    30    30    22    1
    31    30    25    1
    32    12    14    1
    33    13    15    1
@<TRIPOS>MOLECULE
*****
 30 33 0 0 0
SMALL
GASTEIGER

@<TRIPOS>ATOM
      1 C         143.9939  139.5841  161.0179 C.3     1  UNL1        0.0992
      2 C         143.2749  138.9227  165.4106 C.ar    1  UNL1        0.0001
      3 C         142.3399  138.3280  164.3997 C.ar    1  UNL1       -0.0003
      4 C         142.5795  138.5485  162.9355 C.ar    1  UNL1       -0.0029
      5 C         143.7543  139.3637  162.4821 C.ar    1  UNL1       -0.0061
      6 C         144.6894  139.9584  163.4930 C.ar    1  UNL1       -0.0029
      7 C         144.4497  139.7379  164.9573 C.ar    1  UNL1       -0.0003
      8 C         142.3101  139.7390  167.6805 C.2     1  UNL1        0.0598
      9 C         143.0354  138.7023  166.8748 C.2     1  UNL1        0.0047
     10 O         143.2235  139.2210  170.0569 O.2     1  UNL1       -0.2681
     11 C         142.0705  139.5185  169.1448 C.2     1  UNL1        0.2679
     12 N         140.6779  139.5954  169.6968 N.am    1  UNL1       -0.1934
     13 O         140.4383  139.3749  171.1610 O.3     1  UNL1       -0.2949
     14 H         139.9212  139.7907  169.0981 H       1  UNL1        0.1825
     15 H         141.2827  139.1956  171.6034 H       1  UNL1        0.2414
     16 N         143.5099  140.8421  160.3597 N.3     1  UNL1       -0.2687
     17 C         144.0152  141.2186  158.9985 C.3     1  UNL1        0.0724
     18 C         143.5312  142.4766  158.3403 C.3     1  UNL1        0.0177
     19 C         142.5419  143.3580  159.0433 C.3     1  UNL1        0.0072
     20 C         142.0365  142.9815  160.4046 C.3     1  UNL1        0.0399
     21 C         142.5205  141.7236  161.0627 C.3     1  UNL1        0.0768
     22 C         141.0472  143.8630  161.1076 C.2     1  UNL1       -0.0009
     23 C         140.3051  145.0158  160.4990 C.2     1  UNL1        0.0942
     24 N         139.4255  145.6117  161.5579 N.2     1  UNL1       -0.2482
     25 C         139.6241  144.8272  162.8209 C.2     1  UNL1        0.0631
     26 C         139.0218  144.9574  164.1885 C.3     1  UNL1        0.0717
     27 C         139.4217  144.0069  165.2777 C.2     1  UNL1       -0.0198
     28 C         140.4240  142.9261  164.9993 C.2     1  UNL1       -0.0042
     29 C         141.0263  142.7959  163.6318 C.2     1  UNL1        0.0006
     30 C         140.6264  143.7465  162.5426 C.2     1  UNL1        0.0114
@<TRIPOS>BOND
     1    10    11    2
     2    11     8    1
     3     8     9    2
     4     9     2    1
     5     2     3   ar
     6     3     4   ar
     7     4     5   ar
     8     5     1    1
     9     1    16    1
    10    16    17    1
    11    17    18    1
    12    18    19    1
    13    19    20    1
    14    20    22    1
    15    22    23    2
    16    23    24    1
    17    24    25    2
    18    25    26    1
    19    26    27    1
    20    27    28    2
    21    28    29    1
    22    29    30    2
    23    20    21    1
    24     5     6   ar
    25     6     7   ar
    26    11    12   am
    27    12    13    1
    28     7     2   ar
    29    21    16    1
    30    30    22    1
    31    30    25    1
    32    12    14    1
    33    13    15    1
@<TRIPOS>MOLECULE
*****
 30 33 0 0 0
SMALL
GASTEIGER

@<TRIPOS>ATOM
      1 C         141.7671  144.8689  163.1071 C.3     1  UNL1        0.0992
      2 C         141.2785  142.3886  166.8299 C.ar    1  UNL1        0.0001
      3 C         140.1202  143.1797  166.2984 C.ar    1  UNL1       -0.0003
      4 C         140.2831  144.0064  165.0574 C.ar    1  UNL1       -0.0029
      5 C         141.6043  144.0421  164.3480 C.ar    1  UNL1       -0.0061
      6 C         142.7626  143.2510  164.8795 C.ar    1  UNL1       -0.0029
      7 C         142.5997  142.4242  166.1205 C.ar    1  UNL1       -0.0003
      8 C         140.4255  142.1387  169.2712 C.2     1  UNL1        0.0598
      9 C         141.1157  141.5619  168.0708 C.2     1  UNL1        0.0047
     10 O         140.5292  141.9184  171.8579 O.2     1  UNL1       -0.2681
     11 C         140.2627  141.3119  170.5121 C.2     1  UNL1        0.2679
     12 N         139.8334  139.8784  170.4073 N.am    1  UNL1       -0.1934
     13 O         139.6706  139.0516  171.6481 O.3     1  UNL1       -0.2949
     14 H         139.6585  139.4804  169.5240 H       1  UNL1        0.1825
     15 H         139.8804  139.5914  172.4262 H       1  UNL1        0.2414
     16 N         141.0705  144.4666  161.8410 N.3     1  UNL1       -0.2687
     17 C         141.0630  145.3939  160.6620 C.3     1  UNL1        0.0724
     18 C         140.3663  144.9916  159.3959 C.3     1  UNL1        0.0177
     19 C         139.6772  143.6621  159.3089 C.3     1  UNL1        0.0072
     20 C         139.6848  142.7348  160.4880 C.3     1  UNL1        0.0399
     21 C         140.3814  143.1371  161.7540 C.3     1  UNL1        0.0768
     22 C         138.9957  141.4053  160.4010 C.2     1  UNL1       -0.0009
     23 C         138.1744  140.9118  159.2469 C.2     1  UNL1        0.0942
     24 N         137.6781  139.5374  159.5855 N.2     1  UNL1       -0.2482
     25 C         138.1927  139.1814  160.9488 C.2     1  UNL1        0.0631
     26 C         138.0249  137.9553  161.7963 C.3     1  UNL1        0.0717
     27 C         138.6715  137.8836  163.1479 C.2     1  UNL1       -0.0198
     28 C         139.4858  139.0381  163.6519 C.2     1  UNL1       -0.0042
     29 C         139.6536  140.2642  162.8044 C.2     1  UNL1        0.0006
     30 C         139.0070  140.3359  161.4528 C.2     1  UNL1        0.0114
@<TRIPOS>BOND
     1    10    11    2
     2    11     8    1
     3     8     9    2
     4     9     2    1
     5     2     3   ar
     6     3     4   ar
     7     4     5   ar
     8     5     1    1
     9     1    16    1
    10    16    17    1
    11    17    18    1
    12    18    19    1
    13    19    20    1
    14    20    22    1
    15    22    23    2
    16    23    24    1
    17    24    25    2
    18    25    26    1
    19    26    27    1
    20    27    28    2
    21    28    29    1
    22    29    30    2
    23    20    21    1
    24     5     6   ar
    25     6     7   ar
    26    11    12   am
    27    12    13    1
    28     7     2   ar
    29    21    16    1
    30    30    22    1
    31    30    25    1
    32    12    14    1
    33    13    15    1
@<TRIPOS>MOLECULE
*****
 30 33 0 0 0
SMALL
GASTEIGER

@<TRIPOS>ATOM
      1 C         137.6317  142.2935  163.3812 C.3     1  UNL1        0.0992
      2 C         139.8425  140.7931  167.0022 C.ar    1  UNL1        0.0001
      3 C         140.1059  142.1751  166.4820 C.ar    1  UNL1       -0.0003
      4 C         139.3690  142.6752  165.2750 C.ar    1  UNL1       -0.0029
      5 C         138.3686  141.7933  164.5882 C.ar    1  UNL1       -0.0061
      6 C         138.1052  140.4113  165.1085 C.ar    1  UNL1       -0.0029
      7 C         138.8421  139.9112  166.3155 C.ar    1  UNL1       -0.0003
      8 C         141.1970  141.2673  169.1680 C.2     1  UNL1        0.0598
      9 C         140.5794  140.2930  168.2092 C.2     1  UNL1        0.0047
     10 O         141.3918  141.0327  171.7481 O.2     1  UNL1       -0.2681
     11 C         141.9339  140.7670  170.3749 C.2     1  UNL1        0.2679
     12 N         143.2128  140.0011  170.2087 N.am    1  UNL1       -0.1934
     13 O         143.9497  139.5008  171.4156 O.3     1  UNL1       -0.2949
     14 H         143.5686  139.8268  169.3075 H       1  UNL1        0.1825
     15 H         143.4676  139.7561  172.2177 H       1  UNL1        0.2414
     16 N         138.1773  142.0337  162.0083 N.3     1  UNL1       -0.2687
     17 C         137.9455  140.7070  161.3478 C.3     1  UNL1        0.0724
     18 C         138.4911  140.4473  159.9750 C.3     1  UNL1        0.0177
     19 C         139.2685  141.5141  159.2626 C.3     1  UNL1        0.0072
     20 C         139.5003  142.8409  159.9231 C.3     1  UNL1        0.0399
     21 C         138.9547  143.1006  161.2959 C.3     1  UNL1        0.0768
     22 C         140.2777  143.9077  159.2107 C.2     1  UNL1       -0.0009
     23 C         141.4260  144.6890  159.7773 C.2     1  UNL1        0.0942
     24 N         141.9012  145.6447  158.7234 N.2     1  UNL1       -0.2482
     25 C         141.0466  145.4541  157.5055 C.2     1  UNL1        0.0631
     26 C         141.0524  146.1194  156.1611 C.3     1  UNL1        0.0717
     27 C         140.0549  145.7112  155.1180 C.2     1  UNL1       -0.0198
     28 C         139.0515  144.6376  155.4192 C.2     1  UNL1       -0.0042
     29 C         139.0457  143.9723  156.7635 C.2     1  UNL1        0.0006
     30 C         140.0432  144.3806  157.8066 C.2     1  UNL1        0.0114
@<TRIPOS>BOND
     1    10    11    2
     2    11     8    1
     3     8     9    2
     4     9     2    1
     5     2     3   ar
     6     3     4   ar
     7     4     5   ar
     8     5     1    1
     9     1    16    1
    10    16    17    1
    11    17    18    1
    12    18    19    1
    13    19    20    1
    14    20    22    1
    15    22    23    2
    16    23    24    1
    17    24    25    2
    18    25    26    1
    19    26    27    1
    20    27    28    2
    21    28    29    1
    22    29    30    2
    23    20    21    1
    24     5     6   ar
    25     6     7   ar
    26    11    12   am
    27    12    13    1
    28     7     2   ar
    29    21    16    1
    30    30    22    1
    31    30    25    1
    32    12    14    1
    33    13    15    1
@<TRIPOS>MOLECULE
*****
 30 33 0 0 0
SMALL
GASTEIGER

@<TRIPOS>ATOM
      1 C         141.9073  139.1036  158.2843 C.3     1  UNL1        0.0992
      2 C         142.2334  138.3336  162.7060 C.ar    1  UNL1        0.0001
      3 C         140.8860  138.5258  162.0755 C.ar    1  UNL1       -0.0003
      4 C         140.7773  138.7824  160.6017 C.ar    1  UNL1       -0.0029
      5 C         142.0160  138.8469  159.7582 C.ar    1  UNL1       -0.0061
      6 C         143.3635  138.6547  160.3886 C.ar    1  UNL1       -0.0029
      7 C         143.4722  138.3980  161.8626 C.ar    1  UNL1       -0.0003
      8 C         143.4536  138.7017  164.9700 C.2     1  UNL1        0.0598
      9 C         142.3422  138.0769  164.1798 C.2     1  UNL1        0.0047
     10 O         144.3310  137.2579  166.9437 O.2     1  UNL1       -0.2681
     11 C         143.5623  138.4450  166.4438 C.2     1  UNL1        0.2679
     12 N         142.9022  139.3754  167.4178 N.am    1  UNL1       -0.1934
     13 O         143.0109  139.1187  168.8917 O.3     1  UNL1       -0.2949
     14 H         142.3977  140.1545  167.0897 H       1  UNL1        0.1825
     15 H         143.5372  138.3180  169.0425 H       1  UNL1        0.2414
     16 N         142.6283  138.2164  157.3133 N.3     1  UNL1       -0.2687
     17 C         143.7331  138.7740  156.4657 C.3     1  UNL1        0.0724
     18 C         144.4541  137.8868  155.4946 C.3     1  UNL1        0.0177
     19 C         144.0704  136.4420  155.3711 C.3     1  UNL1        0.0072
     20 C         142.9655  135.8843  156.2188 C.3     1  UNL1        0.0399
     21 C         142.2446  136.7716  157.1898 C.3     1  UNL1        0.0768
     22 C         142.5818  134.4395  156.0954 C.2     1  UNL1       -0.0009
     23 C         141.3950  133.9030  155.3512 C.2     1  UNL1        0.0942
     24 N         141.3973  132.4094  155.4904 N.2     1  UNL1       -0.2482
     25 C         142.5853  132.0229  156.3205 C.2     1  UNL1        0.0631
     26 C         143.0951  130.6907  156.7842 C.3     1  UNL1        0.0717
     27 C         144.3370  130.6131  157.6219 C.2     1  UNL1       -0.0198
     28 C         145.0691  131.8678  157.9958 C.2     1  UNL1       -0.0042
     29 C         144.5593  133.2000  157.5321 C.2     1  UNL1        0.0006
     30 C         143.3174  133.2776  156.6944 C.2     1  UNL1        0.0114
@<TRIPOS>BOND
     1    10    11    2
     2    11     8    1
     3     8     9    2
     4     9     2    1
     5     2     3   ar
     6     3     4   ar
     7     4     5   ar
     8     5     1    1
     9     1    16    1
    10    16    17    1
    11    17    18    1
    12    18    19    1
    13    19    20    1
    14    20    22    1
    15    22    23    2
    16    23    24    1
    17    24    25    2
    18    25    26    1
    19    26    27    1
    20    27    28    2
    21    28    29    1
    22    29    30    2
    23    20    21    1
    24     5     6   ar
    25     6     7   ar
    26    11    12   am
    27    12    13    1
    28     7     2   ar
    29    21    16    1
    30    30    22    1
    31    30    25    1
    32    12    14    1
    33    13    15    1
@<TRIPOS>MOLECULE
*****
 30 33 0 0 0
SMALL
GASTEIGER

@<TRIPOS>ATOM
      1 C         141.8717  137.7498  163.6016 C.3     1  UNL1        0.0992
      2 C         140.8814  140.0784  167.3228 C.ar    1  UNL1        0.0001
      3 C         139.7802  139.4984  166.4857 C.ar    1  UNL1       -0.0003
      4 C         140.1103  138.7222  165.2453 C.ar    1  UNL1       -0.0029
      5 C         141.5417  138.5260  164.8419 C.ar    1  UNL1       -0.0061
      6 C         142.6430  139.1060  165.6791 C.ar    1  UNL1       -0.0029
      7 C         142.3128  139.8822  166.9195 C.ar    1  UNL1       -0.0003
      8 C         140.6010  142.3536  168.5454 C.2     1  UNL1        0.0598
      9 C         140.5514  140.8546  168.5632 C.2     1  UNL1        0.0047
     10 O         141.1240  144.2954  170.1904 O.2     1  UNL1       -0.2681
     11 C         140.2710  143.1297  169.7858 C.2     1  UNL1        0.2679
     12 N         139.0879  142.7402  170.6216 N.am    1  UNL1       -0.1934
     13 O         138.7578  143.5162  171.8621 O.3     1  UNL1       -0.2949
     14 H         138.5281  141.9752  170.3560 H       1  UNL1        0.1825
     15 H         139.4033  144.2309  171.9777 H       1  UNL1        0.2414
     16 N         141.8523  138.4291  162.2643 N.3     1  UNL1       -0.2687
     17 C         142.4801  137.7633  161.0758 C.3     1  UNL1        0.0724
     18 C         142.4607  138.4425  159.7386 C.3     1  UNL1        0.0177
     19 C         141.8135  139.7876  159.5898 C.3     1  UNL1        0.0072
     20 C         141.1857  140.4534  160.7785 C.3     1  UNL1        0.0399
     21 C         141.2052  139.7741  162.1156 C.3     1  UNL1        0.0768
     22 C         140.5386  141.7984  160.6298 C.2     1  UNL1       -0.0009
     23 C         139.5454  142.1872  159.5750 C.2     1  UNL1        0.0942
     24 N         139.1640  143.6198  159.8031 N.2     1  UNL1       -0.2482
     25 C         139.9214  144.1165  160.9988 C.2     1  UNL1        0.0631
     26 C         139.9473  145.4483  161.6884 C.3     1  UNL1        0.0717
     27 C         140.8227  145.6544  162.8888 C.2     1  UNL1       -0.0198
     28 C         141.6723  144.5286  163.3997 C.2     1  UNL1       -0.0042
     29 C         141.6464  143.1968  162.7102 C.2     1  UNL1        0.0006
     30 C         140.7710  142.9907  161.5097 C.2     1  UNL1        0.0114
@<TRIPOS>BOND
     1    10    11    2
     2    11     8    1
     3     8     9    2
     4     9     2    1
     5     2     3   ar
     6     3     4   ar
     7     4     5   ar
     8     5     1    1
     9     1    16    1
    10    16    17    1
    11    17    18    1
    12    18    19    1
    13    19    20    1
    14    20    22    1
    15    22    23    2
    16    23    24    1
    17    24    25    2
    18    25    26    1
    19    26    27    1
    20    27    28    2
    21    28    29    1
    22    29    30    2
    23    20    21    1
    24     5     6   ar
    25     6     7   ar
    26    11    12   am
    27    12    13    1
    28     7     2   ar
    29    21    16    1
    30    30    22    1
    31    30    25    1
    32    12    14    1
    33    13    15    1
