@<TRIPOS>MOLECULE
*****
 28 30 0 0 0
SMALL
GASTEIGER

@<TRIPOS>ATOM
      1 C         140.9670  140.6625  167.8246 C.3     1  UNL1        0.1719
      2 C         141.6875  141.6032  168.7445 C.ar    1  UNL1        0.0097
      3 C         140.9709  142.7918  169.3132 C.ar    1  UNL1       -0.0016
      4 C         141.6914  143.7324  170.2331 C.ar    1  UNL1       -0.0002
      5 C         143.1284  143.4843  170.5842 C.ar    1  UNL1       -0.0000
      6 C         143.8450  142.2956  170.0154 C.ar    1  UNL1       -0.0002
      7 C         143.1245  141.3550  169.0956 C.ar    1  UNL1       -0.0016
      8 C         140.2465  139.7219  166.9048 C.ar    1  UNL1        0.0097
      9 C         140.9800  139.0781  165.7655 C.ar    1  UNL1       -0.0016
     10 C         140.2595  138.1374  164.8457 C.ar    1  UNL1       -0.0002
     11 C         138.8056  137.8405  165.0650 C.ar    1  UNL1       -0.0000
     12 C         138.0722  138.4842  166.2042 C.ar    1  UNL1       -0.0002
     13 C         138.7927  139.4249  167.1241 C.ar    1  UNL1       -0.0016
     14 C         140.3128  139.8232  170.1948 C.3     1  UNL1        0.1750
     15 O         141.0041  139.5997  168.8824 O.3     1  UNL1       -0.3438
     16 C         140.9299  141.7253  166.7668 C.3     1  UNL1        0.2372
     17 C         142.1913  142.1243  166.0599 C.2     1  UNL1        0.0931
     18 O         143.2310  141.0914  165.7407 O.co2   1  UNL1       -0.5454
     19 O         142.4765  142.8157  165.7838 O.co2   1  UNL1       -0.5454
     20 O         139.6314  142.3892  166.4158 O.3     1  UNL1       -0.4415
     21 C         139.2673  142.6113  164.9776 C.ar    1  UNL1        0.3196
     22 N         139.5170  143.9449  164.3381 N.ar    1  UNL1       -0.1986
     23 C         139.1529  144.1670  162.9001 C.ar    1  UNL1        0.0652
     24 C         139.4027  145.5007  162.2605 C.3     1  UNL1        0.0523
     25 C         138.5391  143.0555  162.1014 C.ar    1  UNL1        0.0297
     26 C         138.2893  141.7218  162.7410 C.ar    1  UNL1        0.0652
     27 C         137.6755  140.6103  161.9424 C.3     1  UNL1        0.0523
     28 N         138.6534  141.4997  164.1791 N.ar    1  UNL1       -0.1986
@<TRIPOS>UNITY_ATOM_ATTR
18 1
charge -1
@<TRIPOS>BOND
     1    14    15    1
     2    15     1    1
     3     1     2    1
     4     2     3   ar
     5     3     4   ar
     6     4     5   ar
     7     5     6   ar
     8     6     7   ar
     9     1     8    1
    10     8     9   ar
    11     9    10   ar
    12    10    11   ar
    13    11    12   ar
    14    12    13   ar
    15     1    16    1
    16    16    20    1
    17    20    21    1
    18    21    22   ar
    19    22    23   ar
    20    23    24    1
    21    23    25   ar
    22    25    26   ar
    23    26    27    1
    24    26    28   ar
    25    16    17    1
    26    17    18   ar
    27    17    19   ar
    28     7     2   ar
    29    13     8   ar
    30    28    21   ar
@<TRIPOS>MOLECULE
*****
 28 30 0 0 0
SMALL
GASTEIGER

@<TRIPOS>ATOM
      1 C         140.9691  140.6559  167.8250 C.3     1  UNL1        0.1719
      2 C         140.2480  139.7142  166.9066 C.ar    1  UNL1        0.0097
      3 C         140.9813  139.0671  165.7693 C.ar    1  UNL1       -0.0016
      4 C         140.2602  138.1255  164.8511 C.ar    1  UNL1       -0.0002
      5 C         138.8059  137.8308  165.0702 C.ar    1  UNL1       -0.0000
      6 C         138.0726  138.4779  166.2075 C.ar    1  UNL1       -0.0002
      7 C         138.7937  139.4195  167.1257 C.ar    1  UNL1       -0.0016
      8 C         141.6902  141.5976  168.7433 C.ar    1  UNL1        0.0097
      9 C         143.1280  141.3508  169.0924 C.ar    1  UNL1       -0.0016
     10 C         143.8490  142.2925  170.0107 C.ar    1  UNL1       -0.0002
     11 C         143.1323  143.4809  170.5799 C.ar    1  UNL1       -0.0000
     12 C         141.6946  143.7277  170.2308 C.ar    1  UNL1       -0.0002
     13 C         140.9735  142.7860  169.3125 C.ar    1  UNL1       -0.0016
     14 C         140.3189  139.8171  170.1964 C.3     1  UNL1        0.1750
     15 O         141.0086  139.5936  168.8832 O.3     1  UNL1       -0.3438
     16 C         140.9296  141.7182  166.7667 C.3     1  UNL1        0.2372
     17 C         142.1909  142.1232  166.0631 C.2     1  UNL1        0.0931
     18 O         143.2116  141.0867  165.6972 O.co2   1  UNL1       -0.5454
     19 O         142.4844  142.8197  165.8095 O.co2   1  UNL1       -0.5454
     20 O         139.6288  142.3755  166.4121 O.3     1  UNL1       -0.4415
     21 C         139.2703  142.6012  164.9731 C.ar    1  UNL1        0.3196
     22 N         139.5259  143.9354  164.3369 N.ar    1  UNL1       -0.1986
     23 C         139.1675  144.1611  162.8979 C.ar    1  UNL1        0.0652
     24 C         139.4230  145.4953  162.2617 C.3     1  UNL1        0.0523
     25 C         138.5535  143.0527  162.0951 C.ar    1  UNL1        0.0297
     26 C         138.2979  141.7185  162.7313 C.ar    1  UNL1        0.0652
     27 C         137.6839  140.6101  161.9286 C.3     1  UNL1        0.0523
     28 N         138.6563  141.4928  164.1703 N.ar    1  UNL1       -0.1986
@<TRIPOS>UNITY_ATOM_ATTR
18 1
charge -1
@<TRIPOS>BOND
     1    14    15    1
     2    15     1    1
     3     1     2    1
     4     2     3   ar
     5     3     4   ar
     6     4     5   ar
     7     5     6   ar
     8     6     7   ar
     9     1     8    1
    10     8     9   ar
    11     9    10   ar
    12    10    11   ar
    13    11    12   ar
    14    12    13   ar
    15     1    16    1
    16    16    20    1
    17    20    21    1
    18    21    22   ar
    19    22    23   ar
    20    23    24    1
    21    23    25   ar
    22    25    26   ar
    23    26    27    1
    24    26    28   ar
    25    16    17    1
    26    17    18   ar
    27    17    19   ar
    28     7     2   ar
    29    13     8   ar
    30    28    21   ar
@<TRIPOS>MOLECULE
*****
 28 30 0 0 0
SMALL
GASTEIGER

@<TRIPOS>ATOM
      1 C         141.5330  142.6424  163.8479 C.3     1  UNL1        0.1719
      2 C         140.1281  143.1556  163.9628 C.ar    1  UNL1        0.0097
      3 C         139.7704  144.1255  165.0496 C.ar    1  UNL1       -0.0016
      4 C         138.3656  144.6386  165.1644 C.ar    1  UNL1       -0.0002
      5 C         137.3185  144.1818  164.1923 C.ar    1  UNL1       -0.0000
      6 C         137.6762  143.2119  163.1055 C.ar    1  UNL1       -0.0002
      7 C         139.0810  142.6988  162.9907 C.ar    1  UNL1       -0.0016
      8 C         142.9378  142.1293  163.7331 C.ar    1  UNL1        0.0097
      9 C         143.2261  140.9109  162.9069 C.ar    1  UNL1       -0.0016
     10 C         144.6308  140.3978  162.7921 C.ar    1  UNL1       -0.0002
     11 C         145.7474  141.1030  163.5033 C.ar    1  UNL1       -0.0000
     12 C         145.4592  142.3214  164.3295 C.ar    1  UNL1       -0.0002
     13 C         144.0544  142.8345  164.4444 C.ar    1  UNL1       -0.0016
     14 C         142.0748  144.7827  162.4783 C.3     1  UNL1        0.1750
     15 O         141.6785  143.3367  162.5263 O.3     1  UNL1       -0.3438
     16 C         141.3875  141.9481  165.1696 C.3     1  UNL1        0.2372
     17 C         140.5515  140.7072  165.2769 C.2     1  UNL1        0.0931
     18 O         139.2194  140.7575  165.9646 O.co2   1  UNL1       -0.5454
     19 O         140.6464  139.9531  165.0366 O.co2   1  UNL1       -0.5454
     20 O         142.0778  142.4946  166.3839 O.3     1  UNL1       -0.4415
     21 C         141.7380  141.9606  167.7439 C.ar    1  UNL1        0.3196
     22 N         140.8048  142.7228  168.6372 N.ar    1  UNL1       -0.1986
     23 C         140.4649  142.1888  169.9971 C.ar    1  UNL1        0.0652
     24 C         139.5317  142.9510  170.8905 C.3     1  UNL1        0.0523
     25 C         141.0584  140.8925  170.4637 C.ar    1  UNL1        0.0297
     26 C         141.9917  140.1303  169.5703 C.ar    1  UNL1        0.0652
     27 C         142.5851  138.8342  170.0369 C.3     1  UNL1        0.0523
     28 N         142.3315  140.6644  168.2104 N.ar    1  UNL1       -0.1986
@<TRIPOS>UNITY_ATOM_ATTR
18 1
charge -1
@<TRIPOS>BOND
     1    14    15    1
     2    15     1    1
     3     1     2    1
     4     2     3   ar
     5     3     4   ar
     6     4     5   ar
     7     5     6   ar
     8     6     7   ar
     9     1     8    1
    10     8     9   ar
    11     9    10   ar
    12    10    11   ar
    13    11    12   ar
    14    12    13   ar
    15     1    16    1
    16    16    20    1
    17    20    21    1
    18    21    22   ar
    19    22    23   ar
    20    23    24    1
    21    23    25   ar
    22    25    26   ar
    23    26    27    1
    24    26    28   ar
    25    16    17    1
    26    17    18   ar
    27    17    19   ar
    28     7     2   ar
    29    13     8   ar
    30    28    21   ar
@<TRIPOS>MOLECULE
*****
 28 30 0 0 0
SMALL
GASTEIGER

@<TRIPOS>ATOM
      1 C         141.5271  142.6688  163.8461 C.3     1  UNL1        0.1719
      2 C         142.9294  142.1555  163.7037 C.ar    1  UNL1        0.0097
      3 C         144.0468  142.8051  164.4649 C.ar    1  UNL1       -0.0016
      4 C         145.4489  142.2917  164.3226 C.ar    1  UNL1       -0.0002
      5 C         145.7337  141.1287  163.4190 C.ar    1  UNL1       -0.0000
      6 C         144.6164  140.4791  162.6578 C.ar    1  UNL1       -0.0002
      7 C         143.2142  140.9925  162.8002 C.ar    1  UNL1       -0.0016
      8 C         140.1250  143.1822  163.9883 C.ar    1  UNL1        0.0097
      9 C         139.7870  144.1463  165.0867 C.ar    1  UNL1       -0.0016
     10 C         138.3849  144.6597  165.2290 C.ar    1  UNL1       -0.0002
     11 C         137.3205  144.2090  164.2729 C.ar    1  UNL1       -0.0000
     12 C         137.6584  143.2449  163.1746 C.ar    1  UNL1       -0.0002
     13 C         139.0606  142.7315  163.0323 C.ar    1  UNL1       -0.0016
     14 C         142.0671  144.8203  162.4934 C.3     1  UNL1        0.1750
     15 O         141.6536  143.3789  162.5309 O.3     1  UNL1       -0.3438
     16 C         141.4006  141.9588  165.1613 C.3     1  UNL1        0.2372
     17 C         140.5866  140.7027  165.2602 C.2     1  UNL1        0.0931
     18 O         139.2567  140.7236  165.9537 O.co2   1  UNL1       -0.5454
     19 O         140.6935  139.9526  165.0125 O.co2   1  UNL1       -0.5454
     20 O         142.0881  142.5048  166.3775 O.3     1  UNL1       -0.4415
     21 C         141.7452  141.9699  167.7364 C.ar    1  UNL1        0.3196
     22 N         140.8154  142.7351  168.6308 N.ar    1  UNL1       -0.1986
     23 C         140.4725  142.2004  169.9896 C.ar    1  UNL1        0.0652
     24 C         139.5427  142.9656  170.8840 C.3     1  UNL1        0.0523
     25 C         141.0593  140.9004  170.4541 C.ar    1  UNL1        0.0297
     26 C         141.9891  140.1352  169.5596 C.ar    1  UNL1        0.0652
     27 C         142.5759  138.8352  170.0240 C.3     1  UNL1        0.0523
     28 N         142.3320  140.6700  168.2008 N.ar    1  UNL1       -0.1986
@<TRIPOS>UNITY_ATOM_ATTR
18 1
charge -1
@<TRIPOS>BOND
     1    14    15    1
     2    15     1    1
     3     1     2    1
     4     2     3   ar
     5     3     4   ar
     6     4     5   ar
     7     5     6   ar
     8     6     7   ar
     9     1     8    1
    10     8     9   ar
    11     9    10   ar
    12    10    11   ar
    13    11    12   ar
    14    12    13   ar
    15     1    16    1
    16    16    20    1
    17    20    21    1
    18    21    22   ar
    19    22    23   ar
    20    23    24    1
    21    23    25   ar
    22    25    26   ar
    23    26    27    1
    24    26    28   ar
    25    16    17    1
    26    17    18   ar
    27    17    19   ar
    28     7     2   ar
    29    13     8   ar
    30    28    21   ar
@<TRIPOS>MOLECULE
*****
 28 30 0 0 0
SMALL
GASTEIGER

@<TRIPOS>ATOM
      1 C         140.6251  140.0864  166.3797 C.3     1  UNL1        0.1719
      2 C         140.3386  140.7947  167.6706 C.ar    1  UNL1        0.0097
      3 C         140.9387  142.1437  167.9352 C.ar    1  UNL1       -0.0016
      4 C         140.6522  142.8519  169.2259 C.ar    1  UNL1       -0.0002
      5 C         139.7654  142.2112  170.2522 C.ar    1  UNL1       -0.0000
      6 C         139.1652  140.8623  169.9876 C.ar    1  UNL1       -0.0002
      7 C         139.4518  140.1540  168.6968 C.ar    1  UNL1       -0.0016
      8 C         140.9117  139.3781  165.0890 C.ar    1  UNL1        0.0097
      9 C         141.4219  140.1490  163.9076 C.ar    1  UNL1       -0.0016
     10 C         141.7085  139.4406  162.6169 C.ar    1  UNL1       -0.0002
     11 C         141.4849  137.9615  162.5074 C.ar    1  UNL1       -0.0000
     12 C         140.9747  137.1906  163.6886 C.ar    1  UNL1       -0.0002
     13 C         140.6881  137.8989  164.9795 C.ar    1  UNL1       -0.0016
     14 C         143.1853  139.7983  166.7156 C.3     1  UNL1        0.1750
     15 O         141.7790  139.3777  167.0249 O.3     1  UNL1       -0.3438
     16 C         139.4713  140.7951  165.7346 C.3     1  UNL1        0.2372
     17 C         138.3096  140.0083  165.2040 C.2     1  UNL1        0.0931
     18 O         137.6301  138.9940  166.0755 O.co2   1  UNL1       -0.5454
     19 O         137.9243  139.9919  164.5063 O.co2   1  UNL1       -0.5454
     20 O         139.4790  142.2907  165.6200 O.3     1  UNL1       -0.4415
     21 C         140.1514  142.9500  164.4524 C.ar    1  UNL1        0.3196
     22 N         141.4428  143.6873  164.6488 N.ar    1  UNL1       -0.1986
     23 C         142.1152  144.3466  163.4813 C.ar    1  UNL1        0.0652
     24 C         143.4066  145.0839  163.6778 C.3     1  UNL1        0.0523
     25 C         141.4961  144.2685  162.1171 C.ar    1  UNL1        0.0297
     26 C         140.2047  143.5312  161.9207 C.ar    1  UNL1        0.0652
     27 C         139.5857  143.4531  160.5566 C.3     1  UNL1        0.0523
     28 N         139.5323  142.8719  163.0883 N.ar    1  UNL1       -0.1986
@<TRIPOS>UNITY_ATOM_ATTR
18 1
charge -1
@<TRIPOS>BOND
     1    14    15    1
     2    15     1    1
     3     1     2    1
     4     2     3   ar
     5     3     4   ar
     6     4     5   ar
     7     5     6   ar
     8     6     7   ar
     9     1     8    1
    10     8     9   ar
    11     9    10   ar
    12    10    11   ar
    13    11    12   ar
    14    12    13   ar
    15     1    16    1
    16    16    20    1
    17    20    21    1
    18    21    22   ar
    19    22    23   ar
    20    23    24    1
    21    23    25   ar
    22    25    26   ar
    23    26    27    1
    24    26    28   ar
    25    16    17    1
    26    17    18   ar
    27    17    19   ar
    28     7     2   ar
    29    13     8   ar
    30    28    21   ar
@<TRIPOS>MOLECULE
*****
 28 30 0 0 0
SMALL
GASTEIGER

@<TRIPOS>ATOM
      1 C         141.2666  141.3540  163.5507 C.3     1  UNL1        0.1719
      2 C         140.4303  140.1281  163.3318 C.ar    1  UNL1        0.0097
      3 C         140.7730  138.8504  164.0387 C.ar    1  UNL1       -0.0016
      4 C         139.9368  137.6245  163.8199 C.ar    1  UNL1       -0.0002
      5 C         138.7577  137.6765  162.8940 C.ar    1  UNL1       -0.0000
      6 C         138.4150  138.9542  162.1871 C.ar    1  UNL1       -0.0002
      7 C         139.2512  140.1800  162.4060 C.ar    1  UNL1       -0.0016
      8 C         142.1028  142.5799  163.7695 C.ar    1  UNL1        0.0097
      9 C         141.7523  143.8611  163.0726 C.ar    1  UNL1       -0.0016
     10 C         142.5886  145.0870  163.2914 C.ar    1  UNL1       -0.0002
     11 C         143.7754  145.0317  164.2071 C.ar    1  UNL1       -0.0000
     12 C         144.1259  143.7505  164.9040 C.ar    1  UNL1       -0.0002
     13 C         143.2896  142.5246  164.6852 C.ar    1  UNL1       -0.0016
     14 C         143.0326  140.4483  161.8741 C.3     1  UNL1        0.1750
     15 O         141.7922  141.2455  162.1500 O.3     1  UNL1       -0.3438
     16 C         140.7409  141.4626  164.9513 C.3     1  UNL1        0.2372
     17 C         139.6050  142.3937  165.2561 C.2     1  UNL1        0.0931
     18 O         139.8550  143.6533  166.0311 O.co2   1  UNL1       -0.5454
     19 O         138.8245  142.3869  165.0937 O.co2   1  UNL1       -0.5454
     20 O         141.3512  140.6401  166.0473 O.3     1  UNL1       -0.4415
     21 C         141.0658  140.9724  167.4820 C.ar    1  UNL1        0.3196
     22 N         141.9936  141.8733  168.2420 N.ar    1  UNL1       -0.1986
     23 C         141.7083  142.2056  169.6766 C.ar    1  UNL1        0.0652
     24 C         142.6360  143.1066  170.4366 C.3     1  UNL1        0.0523
     25 C         140.4953  141.6369  170.3513 C.ar    1  UNL1        0.0297
     26 C         139.5676  140.7359  169.5913 C.ar    1  UNL1        0.0652
     27 C         138.3546  140.1672  170.2660 C.3     1  UNL1        0.0523
     28 N         139.8529  140.4036  168.1566 N.ar    1  UNL1       -0.1986
@<TRIPOS>UNITY_ATOM_ATTR
18 1
charge -1
@<TRIPOS>BOND
     1    14    15    1
     2    15     1    1
     3     1     2    1
     4     2     3   ar
     5     3     4   ar
     6     4     5   ar
     7     5     6   ar
     8     6     7   ar
     9     1     8    1
    10     8     9   ar
    11     9    10   ar
    12    10    11   ar
    13    11    12   ar
    14    12    13   ar
    15     1    16    1
    16    16    20    1
    17    20    21    1
    18    21    22   ar
    19    22    23   ar
    20    23    24    1
    21    23    25   ar
    22    25    26   ar
    23    26    27    1
    24    26    28   ar
    25    16    17    1
    26    17    18   ar
    27    17    19   ar
    28     7     2   ar
    29    13     8   ar
    30    28    21   ar
@<TRIPOS>MOLECULE
*****
 28 30 0 0 0
SMALL
GASTEIGER

@<TRIPOS>ATOM
      1 C         141.2892  141.3244  163.5581 C.3     1  UNL1        0.1719
      2 C         142.1377  142.5420  163.7760 C.ar    1  UNL1        0.0097
      3 C         143.3159  142.4791  164.7022 C.ar    1  UNL1       -0.0016
      4 C         144.1644  143.6967  164.9201 C.ar    1  UNL1       -0.0002
      5 C         143.8346  144.9772  164.2119 C.ar    1  UNL1       -0.0000
      6 C         142.6564  145.0401  163.2857 C.ar    1  UNL1       -0.0002
      7 C         141.8080  143.8225  163.0678 C.ar    1  UNL1       -0.0016
      8 C         140.4407  140.1068  163.3401 C.ar    1  UNL1        0.0097
      9 C         140.7539  138.8340  164.0695 C.ar    1  UNL1       -0.0016
     10 C         139.9054  137.6164  163.8515 C.ar    1  UNL1       -0.0002
     11 C         138.7438  137.6715  162.9041 C.ar    1  UNL1       -0.0000
     12 C         138.4306  138.9443  162.1747 C.ar    1  UNL1       -0.0002
     13 C         139.2791  140.1619  162.3927 C.ar    1  UNL1       -0.0016
     14 C         143.0344  140.4112  161.8639 C.3     1  UNL1        0.1750
     15 O         141.8031  141.2178  162.1530 O.3     1  UNL1       -0.3438
     16 C         140.7752  141.4309  164.9632 C.3     1  UNL1        0.2372
     17 C         139.6015  142.3140  165.2675 C.2     1  UNL1        0.0931
     18 O         139.8074  143.6134  165.9881 O.co2   1  UNL1       -0.5454
     19 O         138.8182  142.2614  165.1290 O.co2   1  UNL1       -0.5454
     20 O         141.4349  140.6545  166.0641 O.3     1  UNL1       -0.4415
     21 C         141.1380  140.9848  167.4969 C.ar    1  UNL1        0.3196
     22 N         139.9132  140.4249  168.1573 N.ar    1  UNL1       -0.1986
     23 C         139.6162  140.7551  169.5900 C.ar    1  UNL1        0.0652
     24 C         138.3914  140.1952  170.2505 C.3     1  UNL1        0.0523
     25 C         140.5443  141.6453  170.3624 C.ar    1  UNL1        0.0297
     26 C         141.7691  142.2052  169.7020 C.ar    1  UNL1        0.0652
     27 C         142.6971  143.0953  170.4743 C.3     1  UNL1        0.0523
     28 N         142.0660  141.8749  168.2692 N.ar    1  UNL1       -0.1986
@<TRIPOS>UNITY_ATOM_ATTR
18 1
charge -1
@<TRIPOS>BOND
     1    14    15    1
     2    15     1    1
     3     1     2    1
     4     2     3   ar
     5     3     4   ar
     6     4     5   ar
     7     5     6   ar
     8     6     7   ar
     9     1     8    1
    10     8     9   ar
    11     9    10   ar
    12    10    11   ar
    13    11    12   ar
    14    12    13   ar
    15     1    16    1
    16    16    20    1
    17    20    21    1
    18    21    22   ar
    19    22    23   ar
    20    23    24    1
    21    23    25   ar
    22    25    26   ar
    23    26    27    1
    24    26    28   ar
    25    16    17    1
    26    17    18   ar
    27    17    19   ar
    28     7     2   ar
    29    13     8   ar
    30    28    21   ar
@<TRIPOS>MOLECULE
*****
 28 30 0 0 0
SMALL
GASTEIGER

@<TRIPOS>ATOM
      1 C         140.6248  140.0919  166.3785 C.3     1  UNL1        0.1719
      2 C         140.9101  139.3817  165.0884 C.ar    1  UNL1        0.0097
      3 C         141.4004  140.1539  163.8996 C.ar    1  UNL1       -0.0016
      4 C         141.6857  139.4436  162.6097 C.ar    1  UNL1       -0.0002
      5 C         141.4807  137.9612  162.5084 C.ar    1  UNL1       -0.0000
      6 C         140.9904  137.1889  163.6972 C.ar    1  UNL1       -0.0002
      7 C         140.7051  137.8992  164.9872 C.ar    1  UNL1       -0.0016
      8 C         140.3396  140.8021  167.6685 C.ar    1  UNL1        0.0097
      9 C         139.4551  140.1622  168.6973 C.ar    1  UNL1       -0.0016
     10 C         139.1698  140.8724  169.9873 C.ar    1  UNL1       -0.0002
     11 C         139.7691  142.2224  170.2487 C.ar    1  UNL1       -0.0000
     12 C         140.6536  142.8623  169.2200 C.ar    1  UNL1       -0.0002
     13 C         140.9388  142.1521  167.9299 C.ar    1  UNL1       -0.0016
     14 C         143.1925  139.8156  166.6625 C.3     1  UNL1        0.1750
     15 O         141.7945  139.4028  167.0165 O.3     1  UNL1       -0.3438
     16 C         139.4552  140.7810  165.7405 C.3     1  UNL1        0.2372
     17 C         138.3012  139.9749  165.2222 C.2     1  UNL1        0.0931
     18 O         137.6145  138.9866  166.1174 O.co2   1  UNL1       -0.5454
     19 O         137.9236  139.9357  164.5212 O.co2   1  UNL1       -0.5454
     20 O         139.4394  142.2761  165.6209 O.3     1  UNL1       -0.4415
     21 C         140.1168  142.9428  164.4604 C.ar    1  UNL1        0.3196
     22 N         141.4049  143.6829  164.6679 N.ar    1  UNL1       -0.1986
     23 C         142.0823  144.3495  163.5075 C.ar    1  UNL1        0.0652
     24 C         143.3704  145.0896  163.7151 C.3     1  UNL1        0.0523
     25 C         141.4715  144.2762  162.1394 C.ar    1  UNL1        0.0297
     26 C         140.1834  143.5362  161.9318 C.ar    1  UNL1        0.0652
     27 C         139.5726  143.4629  160.5638 C.3     1  UNL1        0.0523
     28 N         139.5060  142.8695  163.0924 N.ar    1  UNL1       -0.1986
@<TRIPOS>UNITY_ATOM_ATTR
18 1
charge -1
@<TRIPOS>BOND
     1    14    15    1
     2    15     1    1
     3     1     2    1
     4     2     3   ar
     5     3     4   ar
     6     4     5   ar
     7     5     6   ar
     8     6     7   ar
     9     1     8    1
    10     8     9   ar
    11     9    10   ar
    12    10    11   ar
    13    11    12   ar
    14    12    13   ar
    15     1    16    1
    16    16    20    1
    17    20    21    1
    18    21    22   ar
    19    22    23   ar
    20    23    24    1
    21    23    25   ar
    22    25    26   ar
    23    26    27    1
    24    26    28   ar
    25    16    17    1
    26    17    18   ar
    27    17    19   ar
    28     7     2   ar
    29    13     8   ar
    30    28    21   ar
@<TRIPOS>MOLECULE
*****
 28 30 0 0 0
SMALL
GASTEIGER

@<TRIPOS>ATOM
      1 C         140.6274  140.0854  166.3753 C.3     1  UNL1        0.1719
      2 C         140.3436  140.7956  167.6657 C.ar    1  UNL1        0.0097
      3 C         139.4518  140.1605  168.6909 C.ar    1  UNL1       -0.0016
      4 C         139.1680  140.8708  169.9813 C.ar    1  UNL1       -0.0002
      5 C         139.7762  142.2161  170.2463 C.ar    1  UNL1       -0.0000
      6 C         140.6680  142.8512  169.2210 C.ar    1  UNL1       -0.0002
      7 C         140.9518  142.1410  167.9307 C.ar    1  UNL1       -0.0016
      8 C         140.9112  139.3751  165.0849 C.ar    1  UNL1        0.0097
      9 C         141.4048  140.1466  163.8969 C.ar    1  UNL1       -0.0016
     10 C         141.6886  139.4364  162.6066 C.ar    1  UNL1       -0.0002
     11 C         141.4789  137.9546  162.5042 C.ar    1  UNL1       -0.0000
     12 C         140.9853  137.1831  163.6921 C.ar    1  UNL1       -0.0002
     13 C         140.7015  137.8934  164.9825 C.ar    1  UNL1       -0.0016
     14 C         143.1947  139.7847  166.6380 C.3     1  UNL1        0.1750
     15 O         141.7958  139.3938  167.0129 O.3     1  UNL1       -0.3438
     16 C         139.4590  140.7769  165.7376 C.3     1  UNL1        0.2372
     17 C         138.3050  139.9730  165.2160 C.2     1  UNL1        0.0931
     18 O         137.6061  138.9948  166.1129 O.co2   1  UNL1       -0.5454
     19 O         137.9328  139.9306  164.5123 O.co2   1  UNL1       -0.5454
     20 O         139.4446  142.2723  165.6216 O.3     1  UNL1       -0.4415
     21 C         140.1192  142.9411  164.4606 C.ar    1  UNL1        0.3196
     22 N         139.5074  142.8664  163.0931 N.ar    1  UNL1       -0.1986
     23 C         140.1820  143.5351  161.9322 C.ar    1  UNL1        0.0652
     24 C         139.5702  143.4604  160.5646 C.3     1  UNL1        0.0523
     25 C         141.4684  144.2785  162.1387 C.ar    1  UNL1        0.0297
     26 C         142.0802  144.3531  163.5063 C.ar    1  UNL1        0.0652
     27 C         143.3665  145.0965  163.7129 C.3     1  UNL1        0.0523
     28 N         141.4056  143.6844  164.6672 N.ar    1  UNL1       -0.1986
@<TRIPOS>UNITY_ATOM_ATTR
18 1
charge -1
@<TRIPOS>BOND
     1    14    15    1
     2    15     1    1
     3     1     2    1
     4     2     3   ar
     5     3     4   ar
     6     4     5   ar
     7     5     6   ar
     8     6     7   ar
     9     1     8    1
    10     8     9   ar
    11     9    10   ar
    12    10    11   ar
    13    11    12   ar
    14    12    13   ar
    15     1    16    1
    16    16    20    1
    17    20    21    1
    18    21    22   ar
    19    22    23   ar
    20    23    24    1
    21    23    25   ar
    22    25    26   ar
    23    26    27    1
    24    26    28   ar
    25    16    17    1
    26    17    18   ar
    27    17    19   ar
    28     7     2   ar
    29    13     8   ar
    30    28    21   ar
