@<TRIPOS>MOLECULE
*****
 39 44 0 0 0
SMALL
GASTEIGER

@<TRIPOS>ATOM
      1 C         138.9463  142.6835  159.3534 C.ar    1  UNL1        0.1319
      2 C         138.2393  141.6502  158.5273 C.ar    1  UNL1        0.0343
      3 C         138.0253  141.8804  157.0606 C.ar    1  UNL1        0.0046
      4 C         138.5184  143.1439  156.4200 C.ar    1  UNL1        0.0239
      5 C         139.2253  144.1772  157.2461 C.ar    1  UNL1        0.1358
      6 N         139.4393  143.9470  158.7128 N.ar    1  UNL1       -0.2261
      7 C         141.4896  141.4178  160.3178 C.3     1  UNL1        0.0233
      8 C         140.4319  141.8204  161.3023 C.3     1  UNL1        0.0939
      9 C         140.6458  141.5901  162.7690 C.3     1  UNL1        0.1105
     10 N         139.5881  141.9927  163.7535 N.pl3   1  UNL1       -0.3041
     11 C         138.3165  142.6255  163.2713 C.3     1  UNL1        0.1123
     12 C         138.1026  142.8557  161.8046 C.3     1  UNL1        0.1135
     13 N         139.1603  142.4532  160.8201 N.pl3   1  UNL1       -0.2914
     14 C         139.8021  141.7624  165.2202 C.ar    1  UNL1        0.0480
     15 C         139.4151  140.4513  165.8378 C.ar    1  UNL1        0.0158
     16 C         139.6290  140.2210  167.3045 C.ar    1  UNL1        0.0196
     17 C         140.2300  141.3018  168.1536 C.ar    1  UNL1        0.1058
     18 C         140.6169  142.6128  167.5360 C.ar    1  UNL1        0.0196
     19 C         140.4030  142.8431  166.0692 C.ar    1  UNL1        0.0158
     20 S         140.4439  141.0714  169.6203 S.O2    1  UNL1        0.0105
     21 C         140.6578  140.8411  171.0869 C.3     1  UNL1        0.1816
     22 O         139.5329  139.8810  169.5662 O.2     1  UNL1       -0.1686
     23 O         141.3548  142.2619  169.6743 O.2     1  UNL1       -0.1686
     24 C         139.7184  145.4408  156.6055 C.2     1  UNL1        0.2636
     25 O         141.1159  145.9187  156.8675 O.2     1  UNL1       -0.2685
     26 N         138.8139  146.2265  155.7030 N.am    1  UNL1       -0.3013
     27 H         137.8967  145.9128  155.5310 H       1  UNL1        0.1497
     28 C         139.3069  147.4901  155.0623 C.3     1  UNL1        0.0719
     29 C         138.9332  148.8212  155.6441 C.3     1  UNL1        0.0203
     30 C         139.7999  148.7536  154.4218 C.3     1  UNL1        0.0018
     31 C         140.2928  150.0172  153.7812 C.3     1  UNL1        0.0024
     32 C         140.6666  148.6861  153.1994 C.3     1  UNL1        0.0018
     33 C         140.1736  147.4225  153.8400 C.3     1  UNL1        0.0203
     34 C         139.7686  150.6084  154.5437 C.3     1  UNL1        0.0285
     35 C         139.0524  151.4159  155.5853 C.3     1  UNL1        0.0884
     36 O         138.6786  152.7470  156.1671 O.3     1  UNL1       -0.3867
     37 C         139.9191  151.3483  154.3630 C.3     1  UNL1        0.0269
     38 C         138.5594  150.1523  156.2259 C.3     1  UNL1        0.0285
     39 H         139.0767  153.4549  155.6367 H       1  UNL1        0.2102
@<TRIPOS>BOND
     1     8     7    1
     2     8     9    1
     3     9    10    1
     4    10    14    1
     5    14    15   ar
     6    15    16   ar
     7    16    17   ar
     8    17    20    1
     9    20    21    1
    10    20    22    2
    11    20    23    2
    12    17    18   ar
    13    18    19   ar
    14    10    11    1
    15    11    12    1
    16    12    13    1
    17    13     1    1
    18     1     2   ar
    19     2     3   ar
    20     3     4   ar
    21     4     5   ar
    22     5    24    1
    23    24    25    2
    24    24    26   am
    25    26    28    1
    26    28    29    1
    27    29    30    1
    28    30    31    1
    29    31    32    1
    30    32    33    1
    31    33    34    1
    32    34    35    1
    33    35    36    1
    34    35    37    1
    35    35    38    1
    36     5     6   ar
    37    13     8    1
    38     6     1   ar
    39    19    14   ar
    40    33    28    1
    41    38    29    1
    42    37    31    1
    43    26    27    1
    44    36    39    1
@<TRIPOS>MOLECULE
*****
 39 44 0 0 0
SMALL
GASTEIGER

@<TRIPOS>ATOM
      1 C         140.5820  139.4350  161.4255 C.ar    1  UNL1        0.1319
      2 C         139.5118  138.4516  161.0543 C.ar    1  UNL1        0.0343
      3 C         138.4688  138.0631  162.0598 C.ar    1  UNL1        0.0046
      4 C         138.4959  138.6578  163.4365 C.ar    1  UNL1        0.0239
      5 C         139.5661  139.6412  163.8077 C.ar    1  UNL1        0.1358
      6 N         140.6091  140.0298  162.8022 N.ar    1  UNL1       -0.2261
      7 C         143.2238  138.0142  161.3790 C.3     1  UNL1        0.0233
      8 C         142.9459  139.1132  160.3967 C.3     1  UNL1        0.0939
      9 C         143.9888  139.5018  159.3911 C.3     1  UNL1        0.1105
     10 N         143.7109  140.6008  158.4088 N.pl3   1  UNL1       -0.3041
     11 C         142.3901  141.3112  158.4321 C.3     1  UNL1        0.1123
     12 C         141.3471  140.9226  159.4376 C.3     1  UNL1        0.1135
     13 N         141.6250  139.8236  160.4199 N.pl3   1  UNL1       -0.2914
     14 C         144.7540  140.9894  157.4032 C.ar    1  UNL1        0.0480
     15 C         144.8695  140.2341  156.1124 C.ar    1  UNL1        0.0158
     16 C         145.9124  140.6226  155.1069 C.ar    1  UNL1        0.0196
     17 C         146.8400  141.7665  155.3921 C.ar    1  UNL1        0.1058
     18 C         146.7245  142.5218  156.6829 C.ar    1  UNL1        0.0196
     19 C         145.6815  142.1332  157.6885 C.ar    1  UNL1        0.0158
     20 S         147.8830  142.1550  154.3865 S.O2    1  UNL1        0.0105
     21 C         148.9259  142.5436  153.3810 C.3     1  UNL1        0.1816
     22 O         146.8051  142.5529  153.4223 O.2     1  UNL1       -0.1686
     23 O         148.9608  141.7571  155.3508 O.2     1  UNL1       -0.1686
     24 C         139.5931  140.2360  165.1846 C.2     1  UNL1        0.2636
     25 O         138.8498  141.5080  165.4668 O.2     1  UNL1       -0.2685
     26 N         140.3635  139.5589  166.2791 N.am    1  UNL1       -0.3013
     27 H         140.8513  138.7241  166.0938 H       1  UNL1        0.1497
     28 C         140.3905  140.1537  167.6559 C.3     1  UNL1        0.0719
     29 C         141.5832  140.9426  168.1087 C.3     1  UNL1        0.0203
     30 C         140.4176  140.7485  169.0326 C.3     1  UNL1        0.0018
     31 C         140.4447  141.3433  170.4094 C.3     1  UNL1        0.0024
     32 C         139.2520  140.5543  169.9565 C.3     1  UNL1        0.0018
     33 C         139.2249  139.9595  168.5798 C.3     1  UNL1        0.0203
     34 C         141.4415  141.7588  170.2103 C.3     1  UNL1        0.0285
     35 C         142.8030  142.3264  169.9383 C.3     1  UNL1        0.0884
     36 O         143.9957  143.1153  170.3911 O.3     1  UNL1       -0.3867
     37 C         141.6374  142.1322  170.8622 C.3     1  UNL1        0.0269
     38 C         142.7759  141.7316  168.5615 C.3     1  UNL1        0.0285
     39 H         143.8520  143.4264  171.2986 H       1  UNL1        0.2102
@<TRIPOS>BOND
     1     8     7    1
     2     8     9    1
     3     9    10    1
     4    10    14    1
     5    14    15   ar
     6    15    16   ar
     7    16    17   ar
     8    17    20    1
     9    20    21    1
    10    20    22    2
    11    20    23    2
    12    17    18   ar
    13    18    19   ar
    14    10    11    1
    15    11    12    1
    16    12    13    1
    17    13     1    1
    18     1     2   ar
    19     2     3   ar
    20     3     4   ar
    21     4     5   ar
    22     5    24    1
    23    24    25    2
    24    24    26   am
    25    26    28    1
    26    28    29    1
    27    29    30    1
    28    30    31    1
    29    31    32    1
    30    32    33    1
    31    33    34    1
    32    34    35    1
    33    35    36    1
    34    35    37    1
    35    35    38    1
    36     5     6   ar
    37    13     8    1
    38     6     1   ar
    39    19    14   ar
    40    33    28    1
    41    38    29    1
    42    37    31    1
    43    26    27    1
    44    36    39    1
@<TRIPOS>MOLECULE
*****
 39 44 0 0 0
SMALL
GASTEIGER

@<TRIPOS>ATOM
      1 C         141.9897  138.9272  159.2676 C.ar    1  UNL1        0.1319
      2 C         141.5523  140.0021  158.3171 C.ar    1  UNL1        0.0343
      3 C         141.7201  139.8098  156.8390 C.ar    1  UNL1        0.0046
      4 C         142.3252  138.5428  156.3114 C.ar    1  UNL1        0.0239
      5 C         142.7625  137.4679  157.2619 C.ar    1  UNL1        0.1358
      6 N         142.5947  137.6602  158.7400 N.ar    1  UNL1       -0.2261
      7 C         139.3819  138.2419  160.5830 C.3     1  UNL1        0.0233
      8 C         140.5180  138.7769  161.4035 C.3     1  UNL1        0.0939
      9 C         140.3503  138.9692  162.8816 C.3     1  UNL1        0.1105
     10 N         141.4864  139.5041  163.7020 N.pl3   1  UNL1       -0.3041
     11 C         142.7902  139.8468  163.0443 C.3     1  UNL1        0.1123
     12 C         142.9580  139.6545  161.5662 C.3     1  UNL1        0.1135
     13 N         141.8219  139.1195  160.7458 N.pl3   1  UNL1       -0.2914
     14 C         141.3186  139.6964  165.1802 C.ar    1  UNL1        0.0480
     15 C         142.4993  139.5519  166.0941 C.ar    1  UNL1        0.0158
     16 C         142.3316  139.7441  167.5722 C.ar    1  UNL1        0.0196
     17 C         140.9831  140.0810  168.1365 C.ar    1  UNL1        0.1058
     18 C         139.8025  140.2255  167.2226 C.ar    1  UNL1        0.0196
     19 C         139.9703  140.0332  165.7444 C.ar    1  UNL1        0.0158
     20 S         140.8154  140.2732  169.6146 S.O2    1  UNL1        0.0105
     21 C         140.6477  140.4655  171.0927 C.3     1  UNL1        0.1816
     22 O         139.4165  139.7394  169.5253 O.2     1  UNL1       -0.1686
     23 O         142.2143  140.8071  169.7039 O.2     1  UNL1       -0.1686
     24 C         143.3676  136.2008  156.7343 C.2     1  UNL1        0.2636
     25 O         144.4420  136.2612  155.6892 O.2     1  UNL1       -0.2685
     26 N         142.8983  134.8734  157.2516 N.am    1  UNL1       -0.3013
     27 H         142.1932  134.8338  157.9375 H       1  UNL1        0.1497
     28 C         143.5034  133.6063  156.7240 C.3     1  UNL1        0.0719
     29 C         143.0397  133.0427  155.4135 C.3     1  UNL1        0.0203
     30 C         144.1085  132.3393  156.1963 C.3     1  UNL1        0.0018
     31 C         144.7135  131.0722  155.6686 C.3     1  UNL1        0.0024
     32 C         145.1773  131.6358  156.9791 C.3     1  UNL1        0.0018
     33 C         144.5722  132.9029  157.5068 C.3     1  UNL1        0.0203
     34 C         144.0658  131.1313  154.7839 C.3     1  UNL1        0.0285
     35 C         143.1810  131.2121  153.5754 C.3     1  UNL1        0.0884
     36 O         142.7172  130.6485  152.2650 O.3     1  UNL1       -0.3867
     37 C         144.2498  130.5086  154.3582 C.3     1  UNL1        0.0269
     38 C         142.5759  132.4791  154.1031 C.3     1  UNL1        0.0285
     39 H         143.2065  129.8333  152.0723 H       1  UNL1        0.2102
@<TRIPOS>BOND
     1     8     7    1
     2     8     9    1
     3     9    10    1
     4    10    14    1
     5    14    15   ar
     6    15    16   ar
     7    16    17   ar
     8    17    20    1
     9    20    21    1
    10    20    22    2
    11    20    23    2
    12    17    18   ar
    13    18    19   ar
    14    10    11    1
    15    11    12    1
    16    12    13    1
    17    13     1    1
    18     1     2   ar
    19     2     3   ar
    20     3     4   ar
    21     4     5   ar
    22     5    24    1
    23    24    25    2
    24    24    26   am
    25    26    28    1
    26    28    29    1
    27    29    30    1
    28    30    31    1
    29    31    32    1
    30    32    33    1
    31    33    34    1
    32    34    35    1
    33    35    36    1
    34    35    37    1
    35    35    38    1
    36     5     6   ar
    37    13     8    1
    38     6     1   ar
    39    19    14   ar
    40    33    28    1
    41    38    29    1
    42    37    31    1
    43    26    27    1
    44    36    39    1
@<TRIPOS>MOLECULE
*****
 39 44 0 0 0
SMALL
GASTEIGER

@<TRIPOS>ATOM
      1 C         143.2646  140.9460  161.1808 C.ar    1  UNL1        0.1319
      2 C         144.2404  142.0683  160.9846 C.ar    1  UNL1        0.0343
      3 C         144.4623  143.0692  162.0795 C.ar    1  UNL1        0.0046
      4 C         143.7084  142.9480  163.3705 C.ar    1  UNL1        0.0239
      5 C         142.7326  141.8257  163.5668 C.ar    1  UNL1        0.1358
      6 N         142.5108  140.8247  162.4719 N.ar    1  UNL1       -0.2261
      7 C         143.8014  138.0364  161.6769 C.3     1  UNL1        0.0233
      8 C         143.3112  138.4903  160.3339 C.3     1  UNL1        0.0939
      9 C         143.0894  137.4894  159.2390 C.3     1  UNL1        0.1105
     10 N         142.5991  137.9432  157.8960 N.pl3   1  UNL1       -0.3041
     11 C         142.3307  139.3980  157.6479 C.3     1  UNL1        0.1123
     12 C         142.5526  140.3989  158.7428 C.3     1  UNL1        0.1135
     13 N         143.0428  139.9450  160.0858 N.pl3   1  UNL1       -0.2914
     14 C         142.3773  136.9422  156.8010 C.ar    1  UNL1        0.0480
     15 C         143.5119  136.0809  156.3311 C.ar    1  UNL1        0.0158
     16 C         143.2901  135.0799  155.2362 C.ar    1  UNL1        0.0196
     17 C         141.9336  134.9403  154.6112 C.ar    1  UNL1        0.1058
     18 C         140.7990  135.8016  155.0810 C.ar    1  UNL1        0.0196
     19 C         141.0209  136.8026  156.1760 C.ar    1  UNL1        0.0158
     20 S         141.7118  133.9393  153.5163 S.O2    1  UNL1        0.0105
     21 C         141.4901  132.9383  152.4214 C.3     1  UNL1        0.1816
     22 O         142.6984  133.0130  154.1633 O.2     1  UNL1       -0.1686
     23 O         140.7253  134.8656  152.8693 O.2     1  UNL1       -0.1686
     24 C         141.9788  141.7045  164.8579 C.2     1  UNL1        0.2636
     25 O         141.3919  142.9258  165.5012 O.2     1  UNL1       -0.2685
     26 N         141.8118  140.3619  165.5057 N.am    1  UNL1       -0.3013
     27 H         142.1970  139.5603  165.0834 H       1  UNL1        0.1497
     28 C         141.0579  140.2407  166.7968 C.3     1  UNL1        0.0719
     29 C         141.7666  140.4520  168.1018 C.3     1  UNL1        0.0203
     30 C         140.3041  140.1194  168.0880 C.3     1  UNL1        0.0018
     31 C         139.5503  139.9982  169.3791 C.3     1  UNL1        0.0024
     32 C         138.8415  139.7869  168.0741 C.3     1  UNL1        0.0018
     33 C         139.5953  139.9081  166.7830 C.3     1  UNL1        0.0203
     34 C         140.4680  140.2281  169.9365 C.3     1  UNL1        0.0285
     35 C         141.7216  140.5421  170.6979 C.3     1  UNL1        0.0884
     36 O         142.4304  140.7534  172.0029 O.3     1  UNL1       -0.3867
     37 C         140.2590  140.2095  170.6841 C.3     1  UNL1        0.0269
     38 C         142.4754  140.6633  169.4068 C.3     1  UNL1        0.0285
     39 H         141.8030  140.6392  172.7338 H       1  UNL1        0.2102
@<TRIPOS>BOND
     1     8     7    1
     2     8     9    1
     3     9    10    1
     4    10    14    1
     5    14    15   ar
     6    15    16   ar
     7    16    17   ar
     8    17    20    1
     9    20    21    1
    10    20    22    2
    11    20    23    2
    12    17    18   ar
    13    18    19   ar
    14    10    11    1
    15    11    12    1
    16    12    13    1
    17    13     1    1
    18     1     2   ar
    19     2     3   ar
    20     3     4   ar
    21     4     5   ar
    22     5    24    1
    23    24    25    2
    24    24    26   am
    25    26    28    1
    26    28    29    1
    27    29    30    1
    28    30    31    1
    29    31    32    1
    30    32    33    1
    31    33    34    1
    32    34    35    1
    33    35    36    1
    34    35    37    1
    35    35    38    1
    36     5     6   ar
    37    13     8    1
    38     6     1   ar
    39    19    14   ar
    40    33    28    1
    41    38    29    1
    42    37    31    1
    43    26    27    1
    44    36    39    1
@<TRIPOS>MOLECULE
*****
 39 44 0 0 0
SMALL
GASTEIGER

@<TRIPOS>ATOM
      1 C         140.5458  139.5581  161.5561 C.ar    1  UNL1        0.1319
      2 C         139.3450  138.7520  161.1581 C.ar    1  UNL1        0.0343
      3 C         138.3096  138.3930  162.1823 C.ar    1  UNL1        0.0046
      4 C         138.4750  138.8401  163.6045 C.ar    1  UNL1        0.0239
      5 C         139.6757  139.6462  164.0025 C.ar    1  UNL1        0.1358
      6 N         140.7111  140.0052  162.9783 N.ar    1  UNL1       -0.2261
      7 C         140.3217  142.1346  160.0358 C.3     1  UNL1        0.0233
      8 C         141.4691  141.2053  159.7717 C.3     1  UNL1        0.0939
      9 C         142.5045  141.5643  158.7475 C.3     1  UNL1        0.1105
     10 N         143.6520  140.6350  158.4834 N.pl3   1  UNL1       -0.3041
     11 C         143.7640  139.3467  159.2435 C.3     1  UNL1        0.1123
     12 C         142.7287  138.9878  160.2678 C.3     1  UNL1        0.1135
     13 N         141.5812  139.9171  160.5319 N.pl3   1  UNL1       -0.2914
     14 C         144.6874  140.9940  157.4591 C.ar    1  UNL1        0.0480
     15 C         145.5965  142.1646  157.6900 C.ar    1  UNL1        0.0158
     16 C         146.6319  142.5236  156.6658 C.ar    1  UNL1        0.0196
     17 C         146.7582  141.7120  155.4106 C.ar    1  UNL1        0.1058
     18 C         145.8491  140.5414  155.1797 C.ar    1  UNL1        0.0196
     19 C         144.8137  140.1824  156.2040 C.ar    1  UNL1        0.0158
     20 S         147.7936  142.0711  154.3864 S.O2    1  UNL1        0.0105
     21 C         148.8290  142.4301  153.3622 C.3     1  UNL1        0.1816
     22 O         146.7083  142.4282  153.4145 O.2     1  UNL1       -0.1686
     23 O         148.8788  141.7139  155.3583 O.2     1  UNL1       -0.1686
     24 C         139.8411  140.0932  165.4248 C.2     1  UNL1        0.2636
     25 O         138.9952  139.4865  166.5049 O.2     1  UNL1       -0.2685
     26 N         140.8522  141.1470  165.7671 N.am    1  UNL1       -0.3013
     27 H         141.4073  141.5452  165.0582 H       1  UNL1        0.1497
     28 C         141.0175  141.5941  167.1894 C.3     1  UNL1        0.0719
     29 C         141.8861  140.8083  168.1264 C.3     1  UNL1        0.0203
     30 C         141.1828  142.0411  168.6116 C.3     1  UNL1        0.0018
     31 C         141.3482  142.4881  170.0338 C.3     1  UNL1        0.0024
     32 C         140.4796  143.2740  169.0968 C.3     1  UNL1        0.0018
     33 C         140.3142  142.8269  167.6746 C.3     1  UNL1        0.0203
     34 C         142.0125  141.6349  170.2248 C.3     1  UNL1        0.0285
     35 C         142.9200  140.4694  170.4856 C.3     1  UNL1        0.0884
     36 O         143.7886  139.6836  171.4227 O.3     1  UNL1       -0.3867
     37 C         142.2168  141.7023  170.9709 C.3     1  UNL1        0.0269
     38 C         142.7547  140.0224  169.0634 C.3     1  UNL1        0.0285
     39 H         143.7865  140.1056  172.2961 H       1  UNL1        0.2102
@<TRIPOS>BOND
     1     8     7    1
     2     8     9    1
     3     9    10    1
     4    10    14    1
     5    14    15   ar
     6    15    16   ar
     7    16    17   ar
     8    17    20    1
     9    20    21    1
    10    20    22    2
    11    20    23    2
    12    17    18   ar
    13    18    19   ar
    14    10    11    1
    15    11    12    1
    16    12    13    1
    17    13     1    1
    18     1     2   ar
    19     2     3   ar
    20     3     4   ar
    21     4     5   ar
    22     5    24    1
    23    24    25    2
    24    24    26   am
    25    26    28    1
    26    28    29    1
    27    29    30    1
    28    30    31    1
    29    31    32    1
    30    32    33    1
    31    33    34    1
    32    34    35    1
    33    35    36    1
    34    35    37    1
    35    35    38    1
    36     5     6   ar
    37    13     8    1
    38     6     1   ar
    39    19    14   ar
    40    33    28    1
    41    38    29    1
    42    37    31    1
    43    26    27    1
    44    36    39    1
@<TRIPOS>MOLECULE
*****
 39 44 0 0 0
SMALL
GASTEIGER

@<TRIPOS>ATOM
      1 C         139.1159  140.3936  159.6670 C.ar    1  UNL1        0.1319
      2 C         138.4016  141.4393  158.8631 C.ar    1  UNL1        0.0343
      3 C         138.2062  141.2479  157.3883 C.ar    1  UNL1        0.0046
      4 C         138.7251  140.0107  156.7174 C.ar    1  UNL1        0.0239
      5 C         139.4394  138.9650  157.5213 C.ar    1  UNL1        0.1358
      6 N         139.6348  139.1564  158.9961 N.ar    1  UNL1       -0.2261
      7 C         137.7042  138.5987  161.6127 C.3     1  UNL1        0.0233
      8 C         138.6054  139.6876  162.1147 C.3     1  UNL1        0.0939
      9 C         138.8008  139.8791  163.5895 C.3     1  UNL1        0.1105
     10 N         139.7021  140.9681  164.0915 N.pl3   1  UNL1       -0.3041
     11 C         140.4079  141.8655  163.1187 C.3     1  UNL1        0.1123
     12 C         140.2125  141.6740  161.6439 C.3     1  UNL1        0.1135
     13 N         139.3113  140.5850  161.1419 N.pl3   1  UNL1       -0.2914
     14 C         139.8975  141.1595  165.5664 C.ar    1  UNL1        0.0480
     15 C         140.6015  142.3816  166.0773 C.ar    1  UNL1        0.0158
     16 C         140.7969  142.5731  167.5521 C.ar    1  UNL1        0.0196
     17 C         140.2882  141.5425  168.5161 C.ar    1  UNL1        0.1058
     18 C         139.5842  140.3205  168.0053 C.ar    1  UNL1        0.0196
     19 C         139.3888  140.1290  166.5304 C.ar    1  UNL1        0.0158
     20 S         140.4836  141.7341  169.9909 S.O2    1  UNL1        0.0105
     21 C         140.6790  141.9256  171.4657 C.3     1  UNL1        0.1816
     22 O         141.7043  142.5631  169.7216 O.2     1  UNL1       -0.1686
     23 O         139.2630  140.9050  170.2603 O.2     1  UNL1       -0.1686
     24 C         139.9583  137.7278  156.8503 C.2     1  UNL1        0.2636
     25 O         139.0042  136.7742  156.1942 O.2     1  UNL1       -0.2685
     26 N         141.4311  137.4442  156.8355 N.am    1  UNL1       -0.3013
     27 H         142.0572  138.0700  157.2662 H       1  UNL1        0.1497
     28 C         141.9500  136.2069  156.1646 C.3     1  UNL1        0.0719
     29 C         142.6874  135.1736  156.9636 C.3     1  UNL1        0.0203
     30 C         142.4688  134.9698  155.4937 C.3     1  UNL1        0.0018
     31 C         142.9877  133.7326  154.8228 C.3     1  UNL1        0.0024
     32 C         142.2503  134.7660  154.0238 C.3     1  UNL1        0.0018
     33 C         141.7314  136.0031  154.6947 C.3     1  UNL1        0.0203
     34 C         143.3918  133.3820  155.7817 C.3     1  UNL1        0.0285
     35 C         143.9437  132.9031  157.0916 C.3     1  UNL1        0.0884
     36 O         144.6811  131.8697  157.8906 O.3     1  UNL1       -0.3867
     37 C         143.7251  132.6993  155.6217 C.3     1  UNL1        0.0269
     38 C         143.4248  134.1402  157.7626 C.3     1  UNL1        0.0285
     39 H         144.9457  131.1397  157.3093 H       1  UNL1        0.2102
@<TRIPOS>BOND
     1     8     7    1
     2     8     9    1
     3     9    10    1
     4    10    14    1
     5    14    15   ar
     6    15    16   ar
     7    16    17   ar
     8    17    20    1
     9    20    21    1
    10    20    22    2
    11    20    23    2
    12    17    18   ar
    13    18    19   ar
    14    10    11    1
    15    11    12    1
    16    12    13    1
    17    13     1    1
    18     1     2   ar
    19     2     3   ar
    20     3     4   ar
    21     4     5   ar
    22     5    24    1
    23    24    25    2
    24    24    26   am
    25    26    28    1
    26    28    29    1
    27    29    30    1
    28    30    31    1
    29    31    32    1
    30    32    33    1
    31    33    34    1
    32    34    35    1
    33    35    36    1
    34    35    37    1
    35    35    38    1
    36     5     6   ar
    37    13     8    1
    38     6     1   ar
    39    19    14   ar
    40    33    28    1
    41    38    29    1
    42    37    31    1
    43    26    27    1
    44    36    39    1
@<TRIPOS>MOLECULE
*****
 39 44 0 0 0
SMALL
GASTEIGER

@<TRIPOS>ATOM
      1 C         139.3401  139.4088  158.8522 C.ar    1  UNL1        0.1319
      2 C         138.4564  140.3499  158.0883 C.ar    1  UNL1        0.0343
      3 C         138.3662  140.2481  156.5945 C.ar    1  UNL1        0.0046
      4 C         139.1598  139.2053  155.8646 C.ar    1  UNL1        0.0239
      5 C         140.0434  138.2642  156.6285 C.ar    1  UNL1        0.1358
      6 N         140.1336  138.3660  158.1222 N.ar    1  UNL1       -0.2261
      7 C         141.4657  141.1084  160.1144 C.3     1  UNL1        0.0233
      8 C         140.4930  140.3604  160.9771 C.3     1  UNL1        0.0939
      9 C         140.5830  140.4622  162.4709 C.3     1  UNL1        0.1105
     10 N         139.6103  139.7141  163.3336 N.pl3   1  UNL1       -0.3041
     11 C         138.5476  138.8643  162.7026 C.3     1  UNL1        0.1123
     12 C         138.4575  138.7625  161.2088 C.3     1  UNL1        0.1135
     13 N         139.4302  139.5106  160.3460 N.pl3   1  UNL1       -0.2914
     14 C         139.7005  139.8159  164.8275 C.ar    1  UNL1        0.0480
     15 C         140.9047  140.4430  165.4652 C.ar    1  UNL1        0.0158
     16 C         140.9948  140.5449  166.9590 C.ar    1  UNL1        0.0196
     17 C         139.8808  140.0195  167.8152 C.ar    1  UNL1        0.1058
     18 C         138.6766  139.3924  167.1775 C.ar    1  UNL1        0.0196
     19 C         138.5865  139.2906  165.6836 C.ar    1  UNL1        0.0158
     20 S         139.9709  140.1214  169.3090 S.O2    1  UNL1        0.0105
     21 C         140.0611  140.2232  170.8027 C.3     1  UNL1        0.1816
     22 O         138.5253  139.7378  169.4224 O.2     1  UNL1       -0.1686
     23 O         141.4166  140.5049  169.1956 O.2     1  UNL1       -0.1686
     24 C         140.8369  137.2213  155.8985 C.2     1  UNL1        0.2636
     25 O         142.1992  137.5525  155.3650 O.2     1  UNL1       -0.2685
     26 N         140.2682  135.8473  155.7020 N.am    1  UNL1       -0.3013
     27 H         139.3741  135.6300  156.0521 H       1  UNL1        0.1497
     28 C         141.0617  134.8045  154.9720 C.3     1  UNL1        0.0719
     29 C         141.8735  133.8049  155.7413 C.3     1  UNL1        0.0203
     30 C         141.8552  133.7616  154.2421 C.3     1  UNL1        0.0018
     31 C         142.6487  132.7188  153.5122 C.3     1  UNL1        0.0024
     32 C         141.8370  133.7184  152.7429 C.3     1  UNL1        0.0018
     33 C         141.0435  134.7612  153.4728 C.3     1  UNL1        0.0203
     34 C         142.9996  132.3146  154.4710 C.3     1  UNL1        0.0285
     35 C         143.4788  131.7625  155.7808 C.3     1  UNL1        0.0884
     36 O         144.2905  130.7629  156.5501 O.3     1  UNL1       -0.3867
     37 C         143.4605  131.7192  154.2815 C.3     1  UNL1        0.0269
     38 C         142.6853  132.8053  156.5107 C.3     1  UNL1        0.0285
     39 H         144.7384  130.1651  155.9312 H       1  UNL1        0.2102
@<TRIPOS>BOND
     1     8     7    1
     2     8     9    1
     3     9    10    1
     4    10    14    1
     5    14    15   ar
     6    15    16   ar
     7    16    17   ar
     8    17    20    1
     9    20    21    1
    10    20    22    2
    11    20    23    2
    12    17    18   ar
    13    18    19   ar
    14    10    11    1
    15    11    12    1
    16    12    13    1
    17    13     1    1
    18     1     2   ar
    19     2     3   ar
    20     3     4   ar
    21     4     5   ar
    22     5    24    1
    23    24    25    2
    24    24    26   am
    25    26    28    1
    26    28    29    1
    27    29    30    1
    28    30    31    1
    29    31    32    1
    30    32    33    1
    31    33    34    1
    32    34    35    1
    33    35    36    1
    34    35    37    1
    35    35    38    1
    36     5     6   ar
    37    13     8    1
    38     6     1   ar
    39    19    14   ar
    40    33    28    1
    41    38    29    1
    42    37    31    1
    43    26    27    1
    44    36    39    1
@<TRIPOS>MOLECULE
*****
 39 44 0 0 0
SMALL
GASTEIGER

@<TRIPOS>ATOM
      1 C         142.5620  138.9746  158.9433 C.ar    1  UNL1        0.1319
      2 C         142.1817  140.1296  158.0649 C.ar    1  UNL1        0.0343
      3 C         142.1765  139.9678  156.5737 C.ar    1  UNL1        0.0046
      4 C         142.5516  138.6511  155.9609 C.ar    1  UNL1        0.0239
      5 C         142.9319  137.4962  156.8393 C.ar    1  UNL1        0.1358
      6 N         142.9371  137.6580  158.3305 N.ar    1  UNL1       -0.2261
      7 C         140.0627  138.4505  160.5178 C.3     1  UNL1        0.0233
      8 C         141.3176  138.8744  161.2218 C.3     1  UNL1        0.0939
      9 C         141.3229  139.0362  162.7130 C.3     1  UNL1        0.1105
     10 N         142.5777  139.4601  163.4170 N.pl3   1  UNL1       -0.3041
     11 C         143.8273  139.7222  162.6298 C.3     1  UNL1        0.1123
     12 C         143.8221  139.5604  161.1386 C.3     1  UNL1        0.1135
     13 N         142.5672  139.1365  160.4346 N.pl3   1  UNL1       -0.2914
     14 C         142.5829  139.6220  164.9083 C.ar    1  UNL1        0.0480
     15 C         143.2542  138.5954  165.7717 C.ar    1  UNL1        0.0158
     16 C         143.2594  138.7572  167.2629 C.ar    1  UNL1        0.0196
     17 C         142.5934  139.9456  167.8908 C.ar    1  UNL1        0.1058
     18 C         141.9221  140.9722  167.0273 C.ar    1  UNL1        0.0196
     19 C         141.9169  140.8103  165.5360 C.ar    1  UNL1        0.0158
     20 S         142.5986  140.1073  169.3820 S.O2    1  UNL1        0.0105
     21 C         142.6038  140.2691  170.8732 C.3     1  UNL1        0.1816
     22 O         142.9751  138.6637  169.5373 O.2     1  UNL1       -0.1686
     23 O         142.2221  141.5510  169.2267 O.2     1  UNL1       -0.1686
     24 C         143.3070  136.1795  156.2263 C.2     1  UNL1        0.2636
     25 O         144.5143  136.0808  155.3417 O.2     1  UNL1       -0.2685
     26 N         142.4748  134.9615  156.4981 N.am    1  UNL1       -0.3013
     27 H         141.6824  135.0262  157.0787 H       1  UNL1        0.1497
     28 C         142.8499  133.6447  155.8852 C.3     1  UNL1        0.0719
     29 C         143.4751  132.5749  156.7306 C.3     1  UNL1        0.0203
     30 C         143.2250  132.3281  155.2724 C.3     1  UNL1        0.0018
     31 C         143.6001  131.0114  154.6595 C.3     1  UNL1        0.0024
     32 C         142.9749  132.0812  153.8141 C.3     1  UNL1        0.0018
     33 C         142.5998  133.3979  154.4270 C.3     1  UNL1        0.0203
     34 C         143.9701  130.6635  155.6332 C.3     1  UNL1        0.0285
     35 C         144.4754  130.1885  156.9632 C.3     1  UNL1        0.0884
     36 O         145.1005  129.1187  157.8085 O.3     1  UNL1       -0.3867
     37 C         144.2253  129.9416  155.5049 C.3     1  UNL1        0.0269
     38 C         144.1003  131.5051  157.5760 C.3     1  UNL1        0.0285
     39 H         145.2793  128.3377  157.2617 H       1  UNL1        0.2102
@<TRIPOS>BOND
     1     8     7    1
     2     8     9    1
     3     9    10    1
     4    10    14    1
     5    14    15   ar
     6    15    16   ar
     7    16    17   ar
     8    17    20    1
     9    20    21    1
    10    20    22    2
    11    20    23    2
    12    17    18   ar
    13    18    19   ar
    14    10    11    1
    15    11    12    1
    16    12    13    1
    17    13     1    1
    18     1     2   ar
    19     2     3   ar
    20     3     4   ar
    21     4     5   ar
    22     5    24    1
    23    24    25    2
    24    24    26   am
    25    26    28    1
    26    28    29    1
    27    29    30    1
    28    30    31    1
    29    31    32    1
    30    32    33    1
    31    33    34    1
    32    34    35    1
    33    35    36    1
    34    35    37    1
    35    35    38    1
    36     5     6   ar
    37    13     8    1
    38     6     1   ar
    39    19    14   ar
    40    33    28    1
    41    38    29    1
    42    37    31    1
    43    26    27    1
    44    36    39    1
@<TRIPOS>MOLECULE
*****
 39 44 0 0 0
SMALL
GASTEIGER

@<TRIPOS>ATOM
      1 C         140.9061  141.7654  161.0312 C.ar    1  UNL1        0.1319
      2 C         139.4826  141.6217  160.5807 C.ar    1  UNL1        0.0343
      3 C         138.3733  141.6156  161.5904 C.ar    1  UNL1        0.0046
      4 C         138.6876  141.7534  163.0506 C.ar    1  UNL1        0.0239
      5 C         140.1111  141.8972  163.5011 C.ar    1  UNL1        0.1358
      6 N         141.2204  141.9032  162.4914 N.ar    1  UNL1       -0.2261
      7 C         141.8045  144.3519  159.8052 C.3     1  UNL1        0.0233
      8 C         142.4645  143.0647  159.4084 C.3     1  UNL1        0.0939
      9 C         143.5737  143.0706  158.3987 C.3     1  UNL1        0.1105
     10 N         144.2338  141.7834  158.0020 N.pl3   1  UNL1       -0.3041
     11 C         143.7846  140.4902  158.6150 C.3     1  UNL1        0.1123
     12 C         142.6754  140.4842  159.6247 C.3     1  UNL1        0.1135
     13 N         142.0153  141.7715  160.0214 N.pl3   1  UNL1       -0.2914
     14 C         145.3430  141.7894  156.9922 C.ar    1  UNL1        0.0480
     15 C         146.5975  142.5668  157.2608 C.ar    1  UNL1        0.0158
     16 C         147.7067  142.5728  156.2511 C.ar    1  UNL1        0.0196
     17 C         147.5615  141.8015  154.9727 C.ar    1  UNL1        0.1058
     18 C         146.3071  141.0241  154.7042 C.ar    1  UNL1        0.0196
     19 C         145.1978  141.0181  155.7140 C.ar    1  UNL1        0.0158
     20 S         148.6707  141.8075  153.9631 S.O2    1  UNL1        0.0105
     21 C         149.7800  141.8136  152.9534 C.3     1  UNL1        0.1816
     22 O         147.6653  141.9512  152.8593 O.2     1  UNL1       -0.1686
     23 O         149.6762  141.6639  155.0668 O.2     1  UNL1       -0.1686
     24 C         140.4254  142.0349  164.9614 C.2     1  UNL1        0.2636
     25 O         139.6274  142.9757  165.8147 O.2     1  UNL1       -0.2685
     26 N         141.5375  141.2319  165.5682 N.am    1  UNL1       -0.3013
     27 H         142.0612  140.6145  165.0081 H       1  UNL1        0.1497
     28 C         141.8517  141.3697  167.0285 C.3     1  UNL1        0.0719
     29 C         141.0248  140.6405  168.0456 C.3     1  UNL1        0.0203
     30 C         142.1659  141.5074  168.4887 C.3     1  UNL1        0.0018
     31 C         142.4801  141.6451  169.9489 C.3     1  UNL1        0.0024
     32 C         143.3070  142.3743  168.9318 C.3     1  UNL1        0.0018
     33 C         142.9928  142.2366  167.4716 C.3     1  UNL1        0.0203
     34 C         141.6483  140.9705  170.1916 C.3     1  UNL1        0.0285
     35 C         140.5122  140.0490  170.5230 C.3     1  UNL1        0.0884
     36 O         139.6853  139.3198  171.5401 O.3     1  UNL1       -0.3867
     37 C         141.6532  140.9159  170.9661 C.3     1  UNL1        0.0269
     38 C         140.1980  139.9113  169.0628 C.3     1  UNL1        0.0285
     39 H         140.0193  139.5163  172.4293 H       1  UNL1        0.2102
@<TRIPOS>BOND
     1     8     7    1
     2     8     9    1
     3     9    10    1
     4    10    14    1
     5    14    15   ar
     6    15    16   ar
     7    16    17   ar
     8    17    20    1
     9    20    21    1
    10    20    22    2
    11    20    23    2
    12    17    18   ar
    13    18    19   ar
    14    10    11    1
    15    11    12    1
    16    12    13    1
    17    13     1    1
    18     1     2   ar
    19     2     3   ar
    20     3     4   ar
    21     4     5   ar
    22     5    24    1
    23    24    25    2
    24    24    26   am
    25    26    28    1
    26    28    29    1
    27    29    30    1
    28    30    31    1
    29    31    32    1
    30    32    33    1
    31    33    34    1
    32    34    35    1
    33    35    36    1
    34    35    37    1
    35    35    38    1
    36     5     6   ar
    37    13     8    1
    38     6     1   ar
    39    19    14   ar
    40    33    28    1
    41    38    29    1
    42    37    31    1
    43    26    27    1
    44    36    39    1
