@<TRIPOS>MOLECULE
*****
 36 40 0 0 0
SMALL
GASTEIGER

@<TRIPOS>ATOM
      1 N         141.3335  142.5569  161.4150 N.pl3   1  UNL1       -0.2846
      2 C         140.0881  141.9515  161.9916 C.3     1  UNL1        0.1141
      3 C         140.1563  141.1712  163.2708 C.3     1  UNL1        0.1149
      4 N         141.4699  140.9963  163.9735 N.am    1  UNL1       -0.2760
      5 C         141.5382  140.2160  165.2528 C.2     1  UNL1        0.2257
      6 O         142.8518  140.0411  165.9554 O.2     1  UNL1       -0.2749
      7 C         142.7154  141.6017  163.3969 C.3     1  UNL1        0.1149
      8 C         142.6472  142.3820  162.1177 C.3     1  UNL1        0.1141
      9 C         140.4791  146.2983  156.2308 C.ar    1  UNL1        0.1063
     10 C         141.6053  145.4804  155.6719 C.ar    1  UNL1        0.0199
     11 C         142.2276  144.3957  156.5003 C.ar    1  UNL1        0.0210
     12 C         141.7235  144.1289  157.8876 C.ar    1  UNL1        0.0893
     13 N         142.1364  143.1341  158.9316 N.ar    1  UNL1       -0.2241
     14 C         141.2653  143.3372  160.1357 C.ar    1  UNL1        0.1631
     15 S         140.3140  144.4575  159.8360 S.2     1  UNL1       -0.0515
     16 C         140.5972  144.9468  158.4465 C.ar    1  UNL1        0.0510
     17 C         139.9750  146.0315  157.6181 C.ar    1  UNL1        0.0264
     18 C         139.2346  148.4677  154.5740 C.3     1  UNL1        0.1816
     19 S         139.8568  147.3830  155.4024 S.O2    1  UNL1        0.0105
     20 O         140.7448  147.0133  154.2514 O.2     1  UNL1       -0.1686
     21 O         138.9688  147.7526  156.5534 O.2     1  UNL1       -0.1686
     22 C         140.2927  139.6107  165.8294 C.3     1  UNL1        0.0853
     23 C         139.5638  138.5363  165.0780 C.3     1  UNL1        0.0096
     24 C         138.3184  137.9309  165.6546 C.3     1  UNL1        0.0005
     25 C         137.8019  138.4000  166.9825 C.3     1  UNL1        0.0005
     26 C         138.5308  139.4743  167.7338 C.3     1  UNL1        0.0096
     27 C         139.7762  140.0796  167.1572 C.3     1  UNL1        0.0851
     28 C         140.5052  141.1539  167.9085 C.2     1  UNL1        0.2231
     29 O         140.2428  142.5975  167.5963 O.2     1  UNL1       -0.2751
     30 N         141.4965  140.7848  168.9720 N.am    1  UNL1       -0.2959
     31 H         141.6687  139.8374  169.1770 H       1  UNL1        0.1502
     32 C         142.2254  141.8591  169.7233 C.3     1  UNL1        0.1364
     33 C         143.2667  142.8848  170.0605 C.3     1  UNL1        0.0353
     34 C         143.3778  142.0922  168.7919 C.3     1  UNL1        0.0353
     35 C         141.3262  141.9992  170.9158 C.1     1  UNL1        0.0896
     36 N         140.4270  142.1392  172.1081 N.1     1  UNL1       -0.1943
@<TRIPOS>BOND
     1    18    19    1
     2    19    20    2
     3    19    21    2
     4    19     9    1
     5     9    10   ar
     6    10    11   ar
     7    11    12   ar
     8    12    13   ar
     9    13    14   ar
    10    14     1    1
    11     1     2    1
    12     2     3    1
    13     3     4    1
    14     4     5   am
    15     5     6    2
    16    22     5    1
    17    22    23    1
    18    23    24    1
    19    24    25    1
    20    25    26    1
    21    26    27    1
    22    27    28    1
    23    28    29    2
    24    28    30   am
    25    30    32    1
    26    32    35    1
    27    35    36    3
    28    32    33    1
    29    33    34    1
    30     4     7    1
    31     7     8    1
    32    14    15   ar
    33    15    16   ar
    34    16    17   ar
    35    17     9   ar
    36    16    12   ar
    37     8     1    1
    38    27    22    1
    39    34    32    1
    40    30    31    1
@<TRIPOS>MOLECULE
*****
 36 40 0 0 0
SMALL
GASTEIGER

@<TRIPOS>ATOM
      1 N         141.4767  139.2905  159.6096 N.pl3   1  UNL1       -0.2846
      2 C         142.6373  139.7395  160.4471 C.3     1  UNL1        0.1141
      3 C         142.4125  140.6658  161.6053 C.3     1  UNL1        0.1149
      4 N         141.0272  141.1432  161.9259 N.am    1  UNL1       -0.2760
      5 C         140.8023  142.0696  163.0841 C.2     1  UNL1        0.2257
      6 O         139.4170  142.5470  163.4047 O.2     1  UNL1       -0.2749
      7 C         139.8666  140.6942  161.0884 C.3     1  UNL1        0.1149
      8 C         140.0913  139.7679  159.9302 C.3     1  UNL1        0.1141
      9 C         141.7238  135.4270  154.4505 C.ar    1  UNL1        0.1063
     10 C         143.1502  135.2413  154.8759 C.ar    1  UNL1        0.0199
     11 C         143.6686  135.9508  156.0916 C.ar    1  UNL1        0.0210
     12 C         142.7608  136.8458  156.8819 C.ar    1  UNL1        0.0893
     13 N         142.9877  137.6695  158.1148 N.ar    1  UNL1       -0.2241
     14 C         141.7015  138.3642  158.4514 C.ar    1  UNL1        0.1631
     15 S         140.6797  137.9698  157.4265 S.2     1  UNL1       -0.0515
     16 C         141.3344  137.0314  156.4565 C.ar    1  UNL1        0.0510
     17 C         140.8159  136.3220  155.2408 C.ar    1  UNL1        0.0264
     18 C         140.6869  134.0081  152.0191 C.3     1  UNL1        0.1816
     19 S         141.2054  134.7175  153.2348 S.O2    1  UNL1        0.0105
     20 O         140.1395  135.7615  153.0802 O.2     1  UNL1       -0.1686
     21 O         142.2712  133.6735  153.3895 O.2     1  UNL1       -0.1686
     22 C         141.9629  142.5185  163.9216 C.3     1  UNL1        0.0853
     23 C         142.8502  143.6282  163.4405 C.3     1  UNL1        0.0096
     24 C         144.0108  144.0771  164.2780 C.3     1  UNL1        0.0005
     25 C         144.2841  143.4165  165.5967 C.3     1  UNL1        0.0005
     26 C         143.3968  142.3069  166.0778 C.3     1  UNL1        0.0096
     27 C         142.2362  141.8579  165.2403 C.3     1  UNL1        0.0851
     28 C         141.3490  140.7483  165.7214 C.2     1  UNL1        0.2231
     29 O         141.8425  139.3320  165.7033 O.2     1  UNL1       -0.2751
     30 N         139.9681  141.0551  166.2205 N.am    1  UNL1       -0.2959
     31 H         139.6441  141.9847  166.2323 H       1  UNL1        0.1502
     32 C         139.0808  139.9455  166.7016 C.3     1  UNL1        0.1364
     33 C         138.0546  138.8517  166.6809 C.3     1  UNL1        0.0353
     34 C         138.3727  139.6055  165.4238 C.3     1  UNL1        0.0353
     35 C         139.4806  139.9001  168.1467 C.1     1  UNL1        0.0896
     36 N         139.8805  139.8547  169.5916 N.1     1  UNL1       -0.1943
@<TRIPOS>BOND
     1    18    19    1
     2    19    20    2
     3    19    21    2
     4    19     9    1
     5     9    10   ar
     6    10    11   ar
     7    11    12   ar
     8    12    13   ar
     9    13    14   ar
    10    14     1    1
    11     1     2    1
    12     2     3    1
    13     3     4    1
    14     4     5   am
    15     5     6    2
    16    22     5    1
    17    22    23    1
    18    23    24    1
    19    24    25    1
    20    25    26    1
    21    26    27    1
    22    27    28    1
    23    28    29    2
    24    28    30   am
    25    30    32    1
    26    32    35    1
    27    35    36    3
    28    32    33    1
    29    33    34    1
    30     4     7    1
    31     7     8    1
    32    14    15   ar
    33    15    16   ar
    34    16    17   ar
    35    17     9   ar
    36    16    12   ar
    37     8     1    1
    38    27    22    1
    39    34    32    1
    40    30    31    1
@<TRIPOS>MOLECULE
*****
 36 40 0 0 0
SMALL
GASTEIGER

@<TRIPOS>ATOM
      1 N         142.0160  140.0727  159.6516 N.pl3   1  UNL1       -0.2846
      2 C         140.9118  140.3761  160.6205 C.3     1  UNL1        0.1141
      3 C         141.0697  141.4899  161.6127 C.3     1  UNL1        0.1149
      4 N         142.3317  142.3003  161.6359 N.am    1  UNL1       -0.2760
      5 C         142.4896  143.4142  162.6281 C.2     1  UNL1        0.2257
      6 O         143.7515  144.2247  162.6513 O.2     1  UNL1       -0.2749
      7 C         143.4358  141.9970  160.6669 C.3     1  UNL1        0.1149
      8 C         143.2779  140.8832  159.6748 C.3     1  UNL1        0.1141
      9 C         141.9453  134.9751  155.7001 C.ar    1  UNL1        0.1063
     10 C         140.7376  135.6561  155.1279 C.ar    1  UNL1        0.0199
     11 C         140.2705  136.9612  155.7010 C.ar    1  UNL1        0.0210
     12 C         141.0111  137.5853  156.8464 C.ar    1  UNL1        0.0893
     13 N         140.7881  138.8551  157.6132 N.ar    1  UNL1       -0.2241
     14 C         141.8580  138.9588  158.6593 C.ar    1  UNL1        0.1631
     15 S         142.7423  137.7532  158.5391 S.2     1  UNL1       -0.0515
     16 C         142.2188  136.9043  157.4186 C.ar    1  UNL1        0.0510
     17 C         142.6860  135.5992  156.8455 C.ar    1  UNL1        0.0264
     18 C         142.8796  132.3649  154.5538 C.3     1  UNL1        0.1816
     19 S         142.4124  133.6700  155.1270 S.O2    1  UNL1        0.0105
     20 O         142.2249  133.0159  156.4637 O.2     1  UNL1       -0.1686
     21 O         142.6000  134.3241  153.7902 O.2     1  UNL1       -0.1686
     22 C         141.3855  143.7176  163.5971 C.3     1  UNL1        0.0853
     23 C         140.3804  144.7847  163.2788 C.3     1  UNL1        0.0096
     24 C         139.2763  145.0881  164.2478 C.3     1  UNL1        0.0005
     25 C         139.1773  144.3243  165.5350 C.3     1  UNL1        0.0005
     26 C         140.1823  143.2573  165.8533 C.3     1  UNL1        0.0096
     27 C         141.2864  142.9539  164.8843 C.3     1  UNL1        0.0851
     28 C         142.2914  141.8869  165.2025 C.2     1  UNL1        0.2231
     29 O         143.6686  142.2662  165.6600 O.2     1  UNL1       -0.2751
     30 N         141.9191  140.4404  165.0633 N.am    1  UNL1       -0.2959
     31 H         141.0152  140.1914  164.7630 H       1  UNL1        0.1502
     32 C         142.9241  139.3734  165.3815 C.3     1  UNL1        0.1364
     33 C         143.7250  138.3823  166.1729 C.3     1  UNL1        0.0353
     34 C         142.6853  139.2215  166.8545 C.3     1  UNL1        0.0353
     35 C         143.5121  139.1546  164.0189 C.1     1  UNL1        0.0896
     36 N         144.1001  138.9358  162.6565 N.1     1  UNL1       -0.1943
@<TRIPOS>BOND
     1    18    19    1
     2    19    20    2
     3    19    21    2
     4    19     9    1
     5     9    10   ar
     6    10    11   ar
     7    11    12   ar
     8    12    13   ar
     9    13    14   ar
    10    14     1    1
    11     1     2    1
    12     2     3    1
    13     3     4    1
    14     4     5   am
    15     5     6    2
    16    22     5    1
    17    22    23    1
    18    23    24    1
    19    24    25    1
    20    25    26    1
    21    26    27    1
    22    27    28    1
    23    28    29    2
    24    28    30   am
    25    30    32    1
    26    32    35    1
    27    35    36    3
    28    32    33    1
    29    33    34    1
    30     4     7    1
    31     7     8    1
    32    14    15   ar
    33    15    16   ar
    34    16    17   ar
    35    17     9   ar
    36    16    12   ar
    37     8     1    1
    38    27    22    1
    39    34    32    1
    40    30    31    1
@<TRIPOS>MOLECULE
*****
 36 40 0 0 0
SMALL
GASTEIGER

@<TRIPOS>ATOM
      1 N         139.7179  141.5137  159.8533 N.pl3   1  UNL1       -0.2846
      2 C         139.3916  141.8736  161.2724 C.3     1  UNL1        0.1141
      3 C         139.6055  140.8721  162.3683 C.3     1  UNL1        0.1149
      4 N         140.1458  139.5106  162.0451 N.am    1  UNL1       -0.2760
      5 C         140.3597  138.5090  163.1411 C.2     1  UNL1        0.2257
      6 O         140.9000  137.1476  162.8178 O.2     1  UNL1       -0.2749
      7 C         140.4721  139.1507  160.6260 C.3     1  UNL1        0.1149
      8 C         140.2582  140.1523  159.5300 C.3     1  UNL1        0.1141
      9 C         139.3232  146.2376  155.4791 C.ar    1  UNL1        0.1063
     10 C         138.2849  145.3453  154.8663 C.ar    1  UNL1        0.0199
     11 C         137.9510  144.0317  155.5090 C.ar    1  UNL1        0.0210
     12 C         138.6555  143.6105  156.7645 C.ar    1  UNL1        0.0893
     13 N         138.5381  142.3822  157.6174 N.ar    1  UNL1       -0.2241
     14 C         139.5040  142.5154  158.7573 C.ar    1  UNL1        0.1631
     15 S         140.2182  143.8260  158.6089 S.2     1  UNL1       -0.0515
     16 C         139.6938  144.5028  157.3772 C.ar    1  UNL1        0.0510
     17 C         140.0277  145.8164  156.7345 C.ar    1  UNL1        0.0264
     18 C         139.9910  148.8647  154.1936 C.3     1  UNL1        0.1816
     19 S         139.6571  147.5512  154.8363 S.O2    1  UNL1        0.0105
     20 O         138.8149  148.2628  155.8533 O.2     1  UNL1       -0.1686
     21 O         140.4993  146.8395  153.8194 O.2     1  UNL1       -0.1686
     22 C         140.0334  138.8689  164.5602 C.3     1  UNL1        0.0853
     23 C         138.6441  138.6607  165.0862 C.3     1  UNL1        0.0096
     24 C         138.3178  139.0206  166.5054 C.3     1  UNL1        0.0005
     25 C         139.3807  139.5887  167.3985 C.3     1  UNL1        0.0005
     26 C         140.7699  139.7968  166.8724 C.3     1  UNL1        0.0096
     27 C         141.0962  139.4369  165.4533 C.3     1  UNL1        0.0851
     28 C         142.4854  139.6450  164.9273 C.2     1  UNL1        0.2231
     29 O         143.5724  138.6711  165.2737 O.2     1  UNL1       -0.2751
     30 N         142.7878  140.8271  164.0547 N.am    1  UNL1       -0.2959
     31 H         142.0744  141.4664  163.8273 H       1  UNL1        0.1502
     32 C         144.1770  141.0352  163.5286 C.3     1  UNL1        0.1364
     33 C         145.5785  141.5581  163.4175 C.3     1  UNL1        0.0353
     34 C         144.6949  142.0136  164.5407 C.3     1  UNL1        0.0353
     35 C         144.1416  140.1291  162.3337 C.1     1  UNL1        0.0896
     36 N         144.1062  139.2230  161.1389 N.1     1  UNL1       -0.1943
@<TRIPOS>BOND
     1    18    19    1
     2    19    20    2
     3    19    21    2
     4    19     9    1
     5     9    10   ar
     6    10    11   ar
     7    11    12   ar
     8    12    13   ar
     9    13    14   ar
    10    14     1    1
    11     1     2    1
    12     2     3    1
    13     3     4    1
    14     4     5   am
    15     5     6    2
    16    22     5    1
    17    22    23    1
    18    23    24    1
    19    24    25    1
    20    25    26    1
    21    26    27    1
    22    27    28    1
    23    28    29    2
    24    28    30   am
    25    30    32    1
    26    32    35    1
    27    35    36    3
    28    32    33    1
    29    33    34    1
    30     4     7    1
    31     7     8    1
    32    14    15   ar
    33    15    16   ar
    34    16    17   ar
    35    17     9   ar
    36    16    12   ar
    37     8     1    1
    38    27    22    1
    39    34    32    1
    40    30    31    1
@<TRIPOS>MOLECULE
*****
 36 40 0 0 0
SMALL
GASTEIGER

@<TRIPOS>ATOM
      1 N         141.1480  140.3080  158.7989 N.pl3   1  UNL1       -0.2846
      2 C         140.5674  140.2945  160.1819 C.3     1  UNL1        0.1141
      3 C         140.3638  141.5830  160.9224 C.3     1  UNL1        0.1149
      4 N         140.7409  142.8849  160.2800 N.am    1  UNL1       -0.2760
      5 C         140.5373  144.1734  161.0206 C.2     1  UNL1        0.2257
      6 O         140.9144  145.4753  160.3781 O.2     1  UNL1       -0.2749
      7 C         141.3215  142.8984  158.8970 C.3     1  UNL1        0.1149
      8 C         141.5251  141.6100  158.1564 C.3     1  UNL1        0.1141
      9 C         142.6197  134.6578  156.0577 C.ar    1  UNL1        0.1063
     10 C         141.4148  134.9523  155.2143 C.ar    1  UNL1        0.0199
     11 C         140.6360  136.2154  155.4339 C.ar    1  UNL1        0.0210
     12 C         141.0622  137.1840  156.4970 C.ar    1  UNL1        0.0893
     13 N         140.4963  138.5004  156.9406 N.ar    1  UNL1       -0.2241
     14 C         141.3516  139.0195  158.0583 C.ar    1  UNL1        0.1631
     15 S         142.4460  138.0240  158.3054 S.2     1  UNL1       -0.0515
     16 C         142.2672  136.8895  157.3404 C.ar    1  UNL1        0.0510
     17 C         143.0459  135.6265  157.1208 C.ar    1  UNL1        0.0264
     18 C         144.1771  132.1317  155.6185 C.3     1  UNL1        0.1816
     19 S         143.3984  133.3948  155.8381 S.O2    1  UNL1        0.0105
     20 O         142.8708  133.3132  154.4363 O.2     1  UNL1       -0.1686
     21 O         143.9260  133.4763  157.2399 O.2     1  UNL1       -0.1686
     22 C         139.9567  144.1599  162.4036 C.3     1  UNL1        0.0853
     23 C         138.4841  144.3670  162.6008 C.3     1  UNL1        0.0096
     24 C         137.9035  144.3535  163.9838 C.3     1  UNL1        0.0005
     25 C         138.7954  144.1329  165.1695 C.3     1  UNL1        0.0005
     26 C         140.2678  143.9259  164.9723 C.3     1  UNL1        0.0096
     27 C         140.8485  143.9393  163.5893 C.3     1  UNL1        0.0851
     28 C         142.3209  143.7323  163.3920 C.2     1  UNL1        0.2231
     29 O         143.2430  144.9138  163.3315 O.2     1  UNL1       -0.2751
     30 N         142.8714  142.3436  163.2553 N.am    1  UNL1       -0.2959
     31 H         142.2662  141.5681  163.2951 H       1  UNL1        0.1502
     32 C         144.3438  142.1365  163.0580 C.3     1  UNL1        0.1364
     33 C         145.7845  141.8671  163.3770 C.3     1  UNL1        0.0353
     34 C         144.7638  141.8853  164.4759 C.3     1  UNL1        0.0353
     35 C         144.4353  142.3157  161.5716 C.1     1  UNL1        0.0896
     36 N         144.5268  142.4950  160.0852 N.1     1  UNL1       -0.1943
@<TRIPOS>BOND
     1    18    19    1
     2    19    20    2
     3    19    21    2
     4    19     9    1
     5     9    10   ar
     6    10    11   ar
     7    11    12   ar
     8    12    13   ar
     9    13    14   ar
    10    14     1    1
    11     1     2    1
    12     2     3    1
    13     3     4    1
    14     4     5   am
    15     5     6    2
    16    22     5    1
    17    22    23    1
    18    23    24    1
    19    24    25    1
    20    25    26    1
    21    26    27    1
    22    27    28    1
    23    28    29    2
    24    28    30   am
    25    30    32    1
    26    32    35    1
    27    35    36    3
    28    32    33    1
    29    33    34    1
    30     4     7    1
    31     7     8    1
    32    14    15   ar
    33    15    16   ar
    34    16    17   ar
    35    17     9   ar
    36    16    12   ar
    37     8     1    1
    38    27    22    1
    39    34    32    1
    40    30    31    1
@<TRIPOS>MOLECULE
*****
 36 40 0 0 0
SMALL
GASTEIGER

@<TRIPOS>ATOM
      1 N         139.6220  142.2701  162.8331 N.pl3   1  UNL1       -0.2846
      2 C         140.5231  142.9869  163.7945 C.3     1  UNL1        0.1141
      3 C         140.6155  142.5287  165.2198 C.3     1  UNL1        0.1149
      4 N         139.8067  141.3536  165.6836 N.am    1  UNL1       -0.2760
      5 C         139.8991  140.8953  167.1090 C.2     1  UNL1        0.2257
      6 O         139.0904  139.7203  167.5729 O.2     1  UNL1       -0.2749
      7 C         138.9057  140.6368  164.7222 C.3     1  UNL1        0.1149
      8 C         138.8133  141.0951  163.2970 C.3     1  UNL1        0.1141
      9 C         139.6765  144.8072  156.9031 C.ar    1  UNL1        0.1063
     10 C         138.7788  143.6474  156.5884 C.ar    1  UNL1        0.0199
     11 C         138.4100  142.6706  157.6654 C.ar    1  UNL1        0.0210
     12 C         138.9388  142.8536  159.0571 C.ar    1  UNL1        0.0893
     13 N         138.7492  142.0594  160.3153 N.ar    1  UNL1       -0.2241
     14 C         139.5297  142.7284  161.4078 C.ar    1  UNL1        0.1631
     15 S         140.2016  143.9360  160.8246 S.2     1  UNL1       -0.0515
     16 C         139.8364  144.0134  159.3718 C.ar    1  UNL1        0.0510
     17 C         140.2053  144.9902  158.2948 C.ar    1  UNL1        0.0264
     18 C         140.4142  146.7607  154.7492 C.3     1  UNL1        0.1816
     19 S         140.0453  145.7839  155.8261 S.O2    1  UNL1        0.0105
     20 O         140.4588  144.6482  154.9377 O.2     1  UNL1       -0.1686
     21 O         139.6319  146.9196  156.7145 O.2     1  UNL1       -0.1686
     22 C         140.8001  141.6121  168.0704 C.3     1  UNL1        0.0853
     23 C         140.2355  142.6466  168.9985 C.3     1  UNL1        0.0096
     24 C         141.1366  143.3634  169.9599 C.3     1  UNL1        0.0005
     25 C         142.6023  143.0457  169.9932 C.3     1  UNL1        0.0005
     26 C         143.1668  142.0114  169.0651 C.3     1  UNL1        0.0096
     27 C         142.2657  141.2946  168.1037 C.3     1  UNL1        0.0851
     28 C         142.8302  140.2602  167.1756 C.2     1  UNL1        0.2231
     29 O         143.1815  138.8978  167.6956 O.2     1  UNL1       -0.2751
     30 N         143.0435  140.5882  165.7275 N.am    1  UNL1       -0.2959
     31 H         142.8129  141.4824  165.3862 H       1  UNL1        0.1502
     32 C         143.6080  139.5539  164.7994 C.3     1  UNL1        0.1364
     33 C         144.5772  138.8464  163.8994 C.3     1  UNL1        0.0353
     34 C         144.9692  140.1358  164.5577 C.3     1  UNL1        0.0353
     35 C         142.4429  138.6126  164.7188 C.1     1  UNL1        0.0896
     36 N         141.2778  137.6713  164.6381 N.1     1  UNL1       -0.1943
@<TRIPOS>BOND
     1    18    19    1
     2    19    20    2
     3    19    21    2
     4    19     9    1
     5     9    10   ar
     6    10    11   ar
     7    11    12   ar
     8    12    13   ar
     9    13    14   ar
    10    14     1    1
    11     1     2    1
    12     2     3    1
    13     3     4    1
    14     4     5   am
    15     5     6    2
    16    22     5    1
    17    22    23    1
    18    23    24    1
    19    24    25    1
    20    25    26    1
    21    26    27    1
    22    27    28    1
    23    28    29    2
    24    28    30   am
    25    30    32    1
    26    32    35    1
    27    35    36    3
    28    32    33    1
    29    33    34    1
    30     4     7    1
    31     7     8    1
    32    14    15   ar
    33    15    16   ar
    34    16    17   ar
    35    17     9   ar
    36    16    12   ar
    37     8     1    1
    38    27    22    1
    39    34    32    1
    40    30    31    1
@<TRIPOS>MOLECULE
*****
 36 40 0 0 0
SMALL
GASTEIGER

@<TRIPOS>ATOM
      1 N         140.9251  141.9278  160.1800 N.pl3   1  UNL1       -0.2846
      2 C         139.8071  141.7240  161.1590 C.3     1  UNL1        0.1141
      3 C         140.0012  140.8228  162.3422 C.3     1  UNL1        0.1149
      4 N         141.3135  140.1255  162.5465 N.am    1  UNL1       -0.2760
      5 C         141.5077  139.2243  163.7299 C.2     1  UNL1        0.2257
      6 O         142.8200  138.5270  163.9341 O.2     1  UNL1       -0.2749
      7 C         142.4315  140.3294  161.5675 C.3     1  UNL1        0.1149
      8 C         142.2373  141.2305  160.3843 C.3     1  UNL1        0.1141
      9 C         139.9747  146.3557  155.5871 C.ar    1  UNL1        0.1063
     10 C         140.2164  145.1974  154.6653 C.ar    1  UNL1        0.0199
     11 C         140.5054  143.8378  155.2291 C.ar    1  UNL1        0.0210
     12 C         140.5528  143.6365  156.7148 C.ar    1  UNL1        0.0893
     13 N         140.8122  142.4215  157.5553 N.ar    1  UNL1       -0.2241
     14 C         140.7309  142.8290  158.9967 C.ar    1  UNL1        0.1631
     15 S         140.4212  144.2958  159.0469 S.2     1  UNL1       -0.0515
     16 C         140.3112  144.7949  157.6366 C.ar    1  UNL1        0.0510
     17 C         140.0221  146.1545  157.0727 C.ar    1  UNL1        0.0264
     18 C         139.3967  149.0749  154.4594 C.3     1  UNL1        0.1816
     19 S         139.6857  147.7153  155.0232 S.O2    1  UNL1        0.0105
     20 O         138.9239  148.0688  156.2661 O.2     1  UNL1       -0.1686
     21 O         140.4476  147.3619  153.7804 O.2     1  UNL1       -0.1686
     22 C         140.3897  139.0205  164.7088 C.3     1  UNL1        0.0853
     23 C         139.5026  137.8162  164.5942 C.3     1  UNL1        0.0096
     24 C         138.3846  137.6124  165.5732 C.3     1  UNL1        0.0005
     25 C         138.1536  138.6128  166.6668 C.3     1  UNL1        0.0005
     26 C         139.0406  139.8169  166.7814 C.3     1  UNL1        0.0096
     27 C         140.1586  140.0208  165.8024 C.3     1  UNL1        0.0851
     28 C         141.0457  141.2249  165.9170 C.2     1  UNL1        0.2231
     29 O         140.4499  142.6011  165.8843 O.2     1  UNL1       -0.2751
     30 N         142.5285  141.0529  166.0644 N.am    1  UNL1       -0.2959
     31 H         142.9195  140.1496  166.0859 H       1  UNL1        0.1502
     32 C         143.4155  142.2570  166.1790 C.3     1  UNL1        0.1364
     33 C         144.3041  143.3966  165.7767 C.3     1  UNL1        0.0353
     34 C         143.7281  142.4891  164.7304 C.3     1  UNL1        0.0353
     35 C         143.4111  142.4432  167.6674 C.1     1  UNL1        0.0896
     36 N         143.4066  142.6294  169.1558 N.1     1  UNL1       -0.1943
@<TRIPOS>BOND
     1    18    19    1
     2    19    20    2
     3    19    21    2
     4    19     9    1
     5     9    10   ar
     6    10    11   ar
     7    11    12   ar
     8    12    13   ar
     9    13    14   ar
    10    14     1    1
    11     1     2    1
    12     2     3    1
    13     3     4    1
    14     4     5   am
    15     5     6    2
    16    22     5    1
    17    22    23    1
    18    23    24    1
    19    24    25    1
    20    25    26    1
    21    26    27    1
    22    27    28    1
    23    28    29    2
    24    28    30   am
    25    30    32    1
    26    32    35    1
    27    35    36    3
    28    32    33    1
    29    33    34    1
    30     4     7    1
    31     7     8    1
    32    14    15   ar
    33    15    16   ar
    34    16    17   ar
    35    17     9   ar
    36    16    12   ar
    37     8     1    1
    38    27    22    1
    39    34    32    1
    40    30    31    1
@<TRIPOS>MOLECULE
*****
 36 40 0 0 0
SMALL
GASTEIGER

@<TRIPOS>ATOM
      1 N         142.4707  140.9385  159.6443 N.pl3   1  UNL1       -0.2846
      2 C         142.2098  142.1684  160.4625 C.3     1  UNL1        0.1141
      3 C         141.2589  142.1107  161.6211 C.3     1  UNL1        0.1149
      4 N         140.5689  140.8231  161.9615 N.am    1  UNL1       -0.2760
      5 C         139.6179  140.7653  163.1202 C.2     1  UNL1        0.2257
      6 O         138.9278  139.4777  163.4606 O.2     1  UNL1       -0.2749
      7 C         140.8297  139.5932  161.1434 C.3     1  UNL1        0.1149
      8 C         141.7807  139.6509  159.9848 C.3     1  UNL1        0.1141
      9 C         146.8876  141.7624  155.0166 C.ar    1  UNL1        0.1063
     10 C         146.1765  140.6078  154.3754 C.ar    1  UNL1        0.0199
     11 C         144.9973  139.9806  155.0581 C.ar    1  UNL1        0.0210
     12 C         144.5294  140.5078  156.3821 C.ar    1  UNL1        0.0893
     13 N         143.4053  140.0961  157.2859 N.ar    1  UNL1       -0.2241
     14 C         143.4217  140.9963  158.4857 C.ar    1  UNL1        0.1631
     15 S         144.5560  141.9643  158.3235 S.2     1  UNL1       -0.0515
     16 C         145.2406  141.6624  157.0233 C.ar    1  UNL1        0.0510
     17 C         146.4197  142.2896  156.3405 C.ar    1  UNL1        0.0264
     18 C         149.2459  143.0170  153.6510 C.3     1  UNL1        0.1816
     19 S         148.0668  142.3897  154.3338 S.O2    1  UNL1        0.0105
     20 O         148.9939  141.5886  155.1990 O.2     1  UNL1       -0.1686
     21 O         147.1396  143.1908  153.4686 O.2     1  UNL1       -0.1686
     22 C         139.3570  141.9952  163.9383 C.3     1  UNL1        0.0853
     23 C         138.1913  142.8806  163.6107 C.3     1  UNL1        0.0096
     24 C         137.9304  144.1104  164.4289 C.3     1  UNL1        0.0005
     25 C         138.8353  144.4549  165.5747 C.3     1  UNL1        0.0005
     26 C         140.0009  143.5695  165.9022 C.3     1  UNL1        0.0096
     27 C         140.2618  142.3397  165.0840 C.3     1  UNL1        0.0851
     28 C         141.4274  141.4543  165.4116 C.2     1  UNL1        0.2231
     29 O         142.8113  141.8491  164.9886 O.2     1  UNL1       -0.2751
     30 N         141.2092  140.1739  166.1621 N.am    1  UNL1       -0.2959
     31 H         140.3009  139.9148  166.4397 H       1  UNL1        0.1502
     32 C         142.3748  139.2886  166.4896 C.3     1  UNL1        0.1364
     33 C         143.4405  138.2449  166.3310 C.3     1  UNL1        0.0353
     34 C         142.4918  138.5255  165.2036 C.3     1  UNL1        0.0353
     35 C         142.6628  139.7441  167.8895 C.1     1  UNL1        0.0896
     36 N         142.9507  140.1997  169.2893 N.1     1  UNL1       -0.1943
@<TRIPOS>BOND
     1    18    19    1
     2    19    20    2
     3    19    21    2
     4    19     9    1
     5     9    10   ar
     6    10    11   ar
     7    11    12   ar
     8    12    13   ar
     9    13    14   ar
    10    14     1    1
    11     1     2    1
    12     2     3    1
    13     3     4    1
    14     4     5   am
    15     5     6    2
    16    22     5    1
    17    22    23    1
    18    23    24    1
    19    24    25    1
    20    25    26    1
    21    26    27    1
    22    27    28    1
    23    28    29    2
    24    28    30   am
    25    30    32    1
    26    32    35    1
    27    35    36    3
    28    32    33    1
    29    33    34    1
    30     4     7    1
    31     7     8    1
    32    14    15   ar
    33    15    16   ar
    34    16    17   ar
    35    17     9   ar
    36    16    12   ar
    37     8     1    1
    38    27    22    1
    39    34    32    1
    40    30    31    1
@<TRIPOS>MOLECULE
*****
 36 40 0 0 0
SMALL
GASTEIGER

@<TRIPOS>ATOM
      1 N         142.7491  139.2842  159.5681 N.pl3   1  UNL1       -0.2846
      2 C         141.7168  140.3190  159.9050 C.3     1  UNL1        0.1141
      3 C         141.8349  141.1109  161.1734 C.3     1  UNL1        0.1149
      4 N         142.9852  140.8680  162.1049 N.am    1  UNL1       -0.2760
      5 C         143.1032  141.6600  163.3734 C.2     1  UNL1        0.2257
      6 O         144.2535  141.4170  164.3049 O.2     1  UNL1       -0.2749
      7 C         144.0174  139.8332  161.7681 C.3     1  UNL1        0.1149
      8 C         143.8994  139.0412  160.4997 C.3     1  UNL1        0.1141
      9 C         142.2699  135.2652  154.5460 C.ar    1  UNL1        0.1063
     10 C         142.2200  136.5389  153.7554 C.ar    1  UNL1        0.0199
     11 C         142.2973  137.8616  154.4586 C.ar    1  UNL1        0.0210
     12 C         142.4245  137.9105  155.9524 C.ar    1  UNL1        0.0893
     13 N         142.5213  139.0573  156.9145 N.ar    1  UNL1       -0.2241
     14 C         142.6311  138.4922  158.2997 C.ar    1  UNL1        0.1631
     15 S         142.6020  136.9963  158.1937 S.2     1  UNL1       -0.0515
     16 C         142.4743  136.6368  156.7429 C.ar    1  UNL1        0.0510
     17 C         142.3970  135.3141  156.0397 C.ar    1  UNL1        0.0264
     18 C         142.1152  132.6198  153.1395 C.3     1  UNL1        0.1816
     19 S         142.1925  133.9425  153.8427 S.O2    1  UNL1        0.0105
     20 O         141.2630  134.5370  152.8266 O.2     1  UNL1       -0.1686
     21 O         143.1221  133.3479  154.8589 O.2     1  UNL1       -0.1686
     22 C         142.0709  142.6948  163.7103 C.3     1  UNL1        0.0853
     23 C         142.2928  144.1280  163.3272 C.3     1  UNL1        0.0096
     24 C         141.2606  145.1629  163.6641 C.3     1  UNL1        0.0005
     25 C         140.0064  144.7645  164.3841 C.3     1  UNL1        0.0005
     26 C         139.7845  143.3313  164.7672 C.3     1  UNL1        0.0096
     27 C         140.8168  142.2965  164.4303 C.3     1  UNL1        0.0851
     28 C         140.5949  140.8633  164.8134 C.2     1  UNL1        0.2231
     29 O         141.4094  140.2457  165.9111 O.2     1  UNL1       -0.2751
     30 N         139.5585  140.0477  164.0987 N.am    1  UNL1       -0.2959
     31 H         139.0239  140.4531  163.3782 H       1  UNL1        0.1502
     32 C         139.3366  138.6146  164.4817 C.3     1  UNL1        0.1364
     33 C         138.8152  137.4173  165.2198 C.3     1  UNL1        0.0353
     34 C         138.3971  138.7961  165.6368 C.3     1  UNL1        0.0353
     35 C         140.1991  137.9352  163.4597 C.1     1  UNL1        0.0896
     36 N         141.0616  137.2558  162.4377 N.1     1  UNL1       -0.1943
@<TRIPOS>BOND
     1    18    19    1
     2    19    20    2
     3    19    21    2
     4    19     9    1
     5     9    10   ar
     6    10    11   ar
     7    11    12   ar
     8    12    13   ar
     9    13    14   ar
    10    14     1    1
    11     1     2    1
    12     2     3    1
    13     3     4    1
    14     4     5   am
    15     5     6    2
    16    22     5    1
    17    22    23    1
    18    23    24    1
    19    24    25    1
    20    25    26    1
    21    26    27    1
    22    27    28    1
    23    28    29    2
    24    28    30   am
    25    30    32    1
    26    32    35    1
    27    35    36    3
    28    32    33    1
    29    33    34    1
    30     4     7    1
    31     7     8    1
    32    14    15   ar
    33    15    16   ar
    34    16    17   ar
    35    17     9   ar
    36    16    12   ar
    37     8     1    1
    38    27    22    1
    39    34    32    1
    40    30    31    1
