@<TRIPOS>MOLECULE
*****
 32 34 0 0 0
SMALL
GASTEIGER

@<TRIPOS>ATOM
      1 C         142.1859  142.3272  163.0617 C.2     1  UNL1        0.2273
      2 O         143.0396  143.5044  163.4300 O.2     1  UNL1       -0.2747
      3 N         142.4500  140.9865  163.6804 N.am    1  UNL1       -0.3001
      4 H         141.8898  140.2138  163.4387 H       1  UNL1        0.1498
      5 C         141.0683  142.4908  162.0748 C.3     1  UNL1        0.1157
      6 C         140.1792  145.2589  160.5929 C.3     1  UNL1        0.0750
      7 C         139.4690  144.6065  161.7417 C.ar    1  UNL1        0.1512
      8 O         138.2253  145.1119  162.4111 O.2     1  UNL1       -0.3581
      9 N         137.8655  144.1518  163.5060 N.ar    1  UNL1       -0.0776
     10 C         138.8866  143.0531  163.5133 C.ar    1  UNL1        0.1207
     11 C         139.8776  143.3341  162.4229 C.ar    1  UNL1        0.0407
     12 C         138.9123  141.8794  164.4471 C.ar    1  UNL1        0.0418
     13 C         139.5752  142.0014  165.7870 C.ar    1  UNL1        0.0600
     14 CL        140.2126  143.2970  166.1933 Cl      1  UNL1       -0.0822
     15 C         139.6008  140.8277  166.7207 C.ar    1  UNL1        0.0115
     16 C         138.9634  139.5320  166.3144 C.ar    1  UNL1        0.0017
     17 C         138.3005  139.4101  164.9745 C.ar    1  UNL1        0.0115
     18 C         138.2749  140.5837  164.0408 C.ar    1  UNL1        0.0600
     19 CL        137.6119  140.4618  162.7007 Cl      1  UNL1       -0.0822
     20 C         143.5677  140.8230  164.6673 C.3     1  UNL1        0.1179
     21 C         143.2744  140.8170  166.1384 C.ar    1  UNL1        0.0168
     22 C         143.2173  142.1099  166.8969 C.ar    1  UNL1        0.0037
     23 C         142.9241  142.1040  168.3679 C.ar    1  UNL1        0.0574
     24 C         142.6879  140.8053  169.0805 C.ar    1  UNL1        0.2251
     25 N         142.7450  139.5125  168.3219 N.ar    1  UNL1       -0.2104
     26 C         143.0383  139.5183  166.8508 C.ar    1  UNL1        0.0994
     27 O         142.3946  140.7993  170.5515 O.3     1  UNL1       -0.4509
     28 C         141.0790  141.3136  171.0560 C.3     1  UNL1        0.3095
     29 C         139.8001  140.8489  170.4247 C.3     1  UNL1        0.4381
     30 F         138.5213  140.3842  169.7934 F       1  UNL1       -0.1663
     31 F         139.6314  142.1917  169.7779 F       1  UNL1       -0.1663
     32 F         139.9689  139.5061  171.0714 F       1  UNL1       -0.1663
@<TRIPOS>BOND
     1     6     7    1
     2     7     8   ar
     3     8     9   ar
     4     9    10   ar
     5    10    12    1
     6    12    13   ar
     7    13    14    1
     8    13    15   ar
     9    15    16   ar
    10    16    17   ar
    11    17    18   ar
    12    18    19    1
    13    10    11   ar
    14    11     5    1
    15     5     1    1
    16     1     2    2
    17     1     3   am
    18     3    20    1
    19    20    21    1
    20    21    22   ar
    21    22    23   ar
    22    23    24   ar
    23    24    27    1
    24    27    28    1
    25    28    29    1
    26    29    30    1
    27    29    31    1
    28    29    32    1
    29    24    25   ar
    30    25    26   ar
    31    11     7   ar
    32    26    21   ar
    33    18    12   ar
    34     3     4    1
@<TRIPOS>MOLECULE
*****
 32 34 0 0 0
SMALL
GASTEIGER

@<TRIPOS>ATOM
      1 C         142.1669  142.2187  162.9943 C.2     1  UNL1        0.2273
      2 O         143.0992  143.3537  163.2990 O.2     1  UNL1       -0.2747
      3 N         142.3636  140.8879  163.6578 N.am    1  UNL1       -0.3001
      4 H         141.7517  140.1430  163.4578 H       1  UNL1        0.1498
      5 C         141.0380  142.4147  162.0263 C.3     1  UNL1        0.1157
      6 C         140.1891  145.1968  160.5469 C.3     1  UNL1        0.0750
      7 C         139.4873  144.5695  161.7147 C.ar    1  UNL1        0.1512
      8 O         138.2720  145.1109  162.4076 O.2     1  UNL1       -0.3581
      9 N         137.9111  144.1667  163.5159 N.ar    1  UNL1       -0.0776
     10 C         138.9034  143.0417  163.5079 C.ar    1  UNL1        0.1207
     11 C         139.8775  143.2907  162.3948 C.ar    1  UNL1        0.0407
     12 C         138.9188  141.8730  164.4481 C.ar    1  UNL1        0.0418
     13 C         138.2826  140.5763  164.0433 C.ar    1  UNL1        0.0600
     14 CL        137.6310  140.4483  162.6983 Cl      1  UNL1       -0.0822
     15 C         138.2980  139.4077  164.9835 C.ar    1  UNL1        0.0115
     16 C         138.9496  139.5357  166.3285 C.ar    1  UNL1        0.0017
     17 C         139.5858  140.8323  166.7333 C.ar    1  UNL1        0.0115
     18 C         139.5704  142.0010  165.7931 C.ar    1  UNL1        0.0600
     19 CL        140.2066  143.2977  166.1979 Cl      1  UNL1       -0.0822
     20 C         143.4926  140.6920  164.6258 C.3     1  UNL1        0.1179
     21 C         143.2290  140.7255  166.1021 C.ar    1  UNL1        0.0168
     22 C         143.1963  142.0375  166.8285 C.ar    1  UNL1        0.0037
     23 C         142.9327  142.0710  168.3048 C.ar    1  UNL1        0.0574
     24 C         142.7019  140.7925  169.0547 C.ar    1  UNL1        0.2251
     25 N         142.7347  139.4806  168.3282 N.ar    1  UNL1       -0.2104
     26 C         142.9982  139.4470  166.8519 C.ar    1  UNL1        0.0994
     27 O         142.4384  140.8259  170.5310 O.3     1  UNL1       -0.4509
     28 C         141.1308  141.3485  171.0477 C.3     1  UNL1        0.3095
     29 C         139.8440  140.9044  170.4178 C.3     1  UNL1        0.4381
     30 F         138.5571  140.4603  169.7879 F       1  UNL1       -0.1663
     31 F         139.9980  139.5549  171.0544 F       1  UNL1       -0.1663
     32 F         139.6899  142.2538  169.7812 F       1  UNL1       -0.1663
@<TRIPOS>BOND
     1     6     7    1
     2     7     8   ar
     3     8     9   ar
     4     9    10   ar
     5    10    12    1
     6    12    13   ar
     7    13    14    1
     8    13    15   ar
     9    15    16   ar
    10    16    17   ar
    11    17    18   ar
    12    18    19    1
    13    10    11   ar
    14    11     5    1
    15     5     1    1
    16     1     2    2
    17     1     3   am
    18     3    20    1
    19    20    21    1
    20    21    22   ar
    21    22    23   ar
    22    23    24   ar
    23    24    27    1
    24    27    28    1
    25    28    29    1
    26    29    30    1
    27    29    31    1
    28    29    32    1
    29    24    25   ar
    30    25    26   ar
    31    11     7   ar
    32    26    21   ar
    33    18    12   ar
    34     3     4    1
@<TRIPOS>MOLECULE
*****
 32 34 0 0 0
SMALL
GASTEIGER

@<TRIPOS>ATOM
      1 C         142.0081  140.4694  163.0827 C.2     1  UNL1        0.2273
      2 O         143.2571  139.7666  163.5258 O.2     1  UNL1       -0.2747
      3 N         140.6842  140.0935  163.6794 N.am    1  UNL1       -0.3001
      4 H         139.8645  140.5547  163.3887 H       1  UNL1        0.1498
      5 C         142.0831  141.5478  162.0430 C.3     1  UNL1        0.1157
      6 C         145.1359  142.4524  161.3279 C.3     1  UNL1        0.0750
      7 C         144.1154  143.2840  162.0471 C.ar    1  UNL1        0.1512
      8 O         144.3191  144.6774  162.5639 O.2     1  UNL1       -0.3581
      9 N         143.0418  145.1227  163.2119 N.ar    1  UNL1       -0.0776
     10 C         142.0486  144.0046  163.0957 C.ar    1  UNL1        0.1207
     11 C         142.7122  142.8682  162.3758 C.ar    1  UNL1        0.0407
     12 C         140.6393  144.0201  163.6092 C.ar    1  UNL1        0.0418
     13 C         139.5325  144.5501  162.7466 C.ar    1  UNL1        0.0600
     14 CL        139.8350  145.0644  161.3704 Cl      1  UNL1       -0.0822
     15 C         138.1233  144.5656  163.2601 C.ar    1  UNL1        0.0115
     16 C         137.8208  144.0512  164.6363 C.ar    1  UNL1        0.0017
     17 C         138.9276  143.5213  165.4990 C.ar    1  UNL1        0.0115
     18 C         140.3368  143.5058  164.9854 C.ar    1  UNL1        0.0600
     19 CL        141.4437  142.9758  165.8481 Cl      1  UNL1       -0.0822
     20 C         140.6093  139.0149  164.7192 C.3     1  UNL1        0.1179
     21 C         140.6991  139.3683  166.1742 C.ar    1  UNL1        0.0168
     22 C         142.0408  139.5321  166.8248 C.ar    1  UNL1        0.0037
     23 C         142.1306  139.8855  168.2798 C.ar    1  UNL1        0.0574
     24 C         140.8788  140.0752  169.0843 C.ar    1  UNL1        0.2251
     25 N         139.5372  139.9114  168.4337 N.ar    1  UNL1       -0.2104
     26 C         139.4473  139.5580  166.9786 C.ar    1  UNL1        0.0994
     27 O         140.9686  140.4286  170.5393 O.3     1  UNL1       -0.4509
     28 C         141.1254  141.8613  170.9548 C.3     1  UNL1        0.3095
     29 C         140.6516  142.9606  170.0509 C.3     1  UNL1        0.4381
     30 F         140.1776  144.0598  169.1470 F       1  UNL1       -0.1663
     31 F         142.0632  143.2028  169.6052 F       1  UNL1       -0.1663
     32 F         139.2399  142.7184  170.4965 F       1  UNL1       -0.1663
@<TRIPOS>BOND
     1     6     7    1
     2     7     8   ar
     3     8     9   ar
     4     9    10   ar
     5    10    12    1
     6    12    13   ar
     7    13    14    1
     8    13    15   ar
     9    15    16   ar
    10    16    17   ar
    11    17    18   ar
    12    18    19    1
    13    10    11   ar
    14    11     5    1
    15     5     1    1
    16     1     2    2
    17     1     3   am
    18     3    20    1
    19    20    21    1
    20    21    22   ar
    21    22    23   ar
    22    23    24   ar
    23    24    27    1
    24    27    28    1
    25    28    29    1
    26    29    30    1
    27    29    31    1
    28    29    32    1
    29    24    25   ar
    30    25    26   ar
    31    11     7   ar
    32    26    21   ar
    33    18    12   ar
    34     3     4    1
@<TRIPOS>MOLECULE
*****
 32 34 0 0 0
SMALL
GASTEIGER

@<TRIPOS>ATOM
      1 C         141.8359  140.4198  162.8911 C.2     1  UNL1        0.2273
      2 O         143.0110  139.5539  163.2371 O.2     1  UNL1       -0.2747
      3 N         140.5136  140.1926  163.5619 N.am    1  UNL1       -0.3001
      4 H         139.7424  140.7609  163.3348 H       1  UNL1        0.1498
      5 C         141.9833  141.5126  161.8743 C.3     1  UNL1        0.1157
      6 C         145.0550  142.3432  161.1505 C.3     1  UNL1        0.0750
      7 C         144.0721  143.1799  161.9147 C.ar    1  UNL1        0.1512
      8 O         144.3287  144.5452  162.4805 O.2     1  UNL1       -0.3581
      9 N         143.0753  145.0072  163.1628 N.ar    1  UNL1       -0.0776
     10 C         142.0441  143.9274  163.0188 C.ar    1  UNL1        0.1207
     11 C         142.6602  142.7981  162.2475 C.ar    1  UNL1        0.0407
     12 C         140.6429  143.9696  163.5525 C.ar    1  UNL1        0.0418
     13 C         140.3555  143.4890  164.9440 C.ar    1  UNL1        0.0600
     14 CL        141.4693  142.9662  165.8020 Cl      1  UNL1       -0.0822
     15 C         138.9543  143.5312  165.4776 C.ar    1  UNL1        0.0115
     16 C         137.8404  144.0540  164.6197 C.ar    1  UNL1        0.0017
     17 C         138.1278  144.5346  163.2282 C.ar    1  UNL1        0.0115
     18 C         139.5290  144.4924  162.6946 C.ar    1  UNL1        0.0600
     19 CL        139.8164  144.9729  161.3029 Cl      1  UNL1       -0.0822
     20 C         140.3664  139.0997  164.5787 C.3     1  UNL1        0.1179
     21 C         140.4921  139.4132  166.0402 C.ar    1  UNL1        0.0168
     22 C         141.8491  139.5763  166.6582 C.ar    1  UNL1        0.0037
     23 C         141.9748  139.8897  168.1197 C.ar    1  UNL1        0.0574
     24 C         140.7435  140.0400  168.9632 C.ar    1  UNL1        0.2251
     25 N         139.3866  139.8769  168.3451 N.ar    1  UNL1       -0.2104
     26 C         139.2608  139.5635  166.8836 C.ar    1  UNL1        0.0994
     27 O         140.8692  140.3535  170.4247 O.3     1  UNL1       -0.4509
     28 C         141.1318  141.7616  170.8698 C.3     1  UNL1        0.3095
     29 C         140.6465  142.9133  170.0404 C.3     1  UNL1        0.4381
     30 F         140.1613  144.0650  169.2109 F       1  UNL1       -0.1663
     31 F         139.2376  142.6284  170.4689 F       1  UNL1       -0.1663
     32 F         142.0555  143.1982  169.6118 F       1  UNL1       -0.1663
@<TRIPOS>BOND
     1     6     7    1
     2     7     8   ar
     3     8     9   ar
     4     9    10   ar
     5    10    12    1
     6    12    13   ar
     7    13    14    1
     8    13    15   ar
     9    15    16   ar
    10    16    17   ar
    11    17    18   ar
    12    18    19    1
    13    10    11   ar
    14    11     5    1
    15     5     1    1
    16     1     2    2
    17     1     3   am
    18     3    20    1
    19    20    21    1
    20    21    22   ar
    21    22    23   ar
    22    23    24   ar
    23    24    27    1
    24    27    28    1
    25    28    29    1
    26    29    30    1
    27    29    31    1
    28    29    32    1
    29    24    25   ar
    30    25    26   ar
    31    11     7   ar
    32    26    21   ar
    33    18    12   ar
    34     3     4    1
@<TRIPOS>MOLECULE
*****
 32 34 0 0 0
SMALL
GASTEIGER

@<TRIPOS>ATOM
      1 C         140.6488  143.0379  165.8519 C.2     1  UNL1        0.2273
      2 O         141.2659  142.6723  164.5344 O.2     1  UNL1       -0.2747
      3 N         139.3638  143.8108  165.8894 N.am    1  UNL1       -0.3001
      4 H         138.9588  144.0508  166.7540 H       1  UNL1        0.1498
      5 C         141.3168  142.6307  167.1316 C.3     1  UNL1        0.1157
      6 C         140.2474  143.6949  170.0252 C.3     1  UNL1        0.0750
      7 C         140.0731  142.3101  169.4758 C.ar    1  UNL1        0.1512
      8 O         139.3766  141.1713  170.1600 O.2     1  UNL1       -0.3581
      9 N         139.4377  139.9783  169.2528 N.ar    1  UNL1       -0.0776
     10 C         140.1720  140.3798  168.0079 C.ar    1  UNL1        0.1207
     11 C         140.5647  141.8209  168.1457 C.ar    1  UNL1        0.0407
     12 C         140.4626  139.4954  166.8317 C.ar    1  UNL1        0.0418
     13 C         139.3389  138.9980  165.9716 C.ar    1  UNL1        0.0600
     14 CL        137.9246  139.3850  166.2876 Cl      1  UNL1       -0.0822
     15 C         139.6295  138.1136  164.7954 C.ar    1  UNL1        0.0115
     16 C         141.0439  137.7266  164.4794 C.ar    1  UNL1        0.0017
     17 C         142.1676  138.2240  165.3395 C.ar    1  UNL1        0.0115
     18 C         141.8769  139.1083  166.5156 C.ar    1  UNL1        0.0600
     19 CL        143.0007  139.6058  167.3758 Cl      1  UNL1       -0.0822
     20 C         138.6959  144.2180  164.6095 C.3     1  UNL1        0.1179
     21 C         138.4050  143.1910  163.5556 C.ar    1  UNL1        0.0168
     22 C         137.8098  141.8690  163.9406 C.ar    1  UNL1        0.0037
     23 C         137.5190  140.8421  162.8867 C.ar    1  UNL1        0.0574
     24 C         137.8233  141.1371  161.4477 C.ar    1  UNL1        0.2251
     25 N         138.4185  142.4590  161.0628 N.ar    1  UNL1       -0.2104
     26 C         138.7094  143.4861  162.1167 C.ar    1  UNL1        0.0994
     27 O         137.5324  140.1101  160.3938 O.3     1  UNL1       -0.4509
     28 C         138.6612  139.4030  159.7040 C.3     1  UNL1        0.3095
     29 C         139.6243  138.5730  160.4998 C.3     1  UNL1        0.4381
     30 F         140.5874  137.7430  161.2957 F       1  UNL1       -0.1663
     31 F         140.7733  139.3098  159.8778 F       1  UNL1       -0.1663
     32 F         138.4753  137.8362  161.1218 F       1  UNL1       -0.1663
@<TRIPOS>BOND
     1     6     7    1
     2     7     8   ar
     3     8     9   ar
     4     9    10   ar
     5    10    12    1
     6    12    13   ar
     7    13    14    1
     8    13    15   ar
     9    15    16   ar
    10    16    17   ar
    11    17    18   ar
    12    18    19    1
    13    10    11   ar
    14    11     5    1
    15     5     1    1
    16     1     2    2
    17     1     3   am
    18     3    20    1
    19    20    21    1
    20    21    22   ar
    21    22    23   ar
    22    23    24   ar
    23    24    27    1
    24    27    28    1
    25    28    29    1
    26    29    30    1
    27    29    31    1
    28    29    32    1
    29    24    25   ar
    30    25    26   ar
    31    11     7   ar
    32    26    21   ar
    33    18    12   ar
    34     3     4    1
@<TRIPOS>MOLECULE
*****
 32 34 0 0 0
SMALL
GASTEIGER

@<TRIPOS>ATOM
      1 C         142.1415  141.4183  162.6152 C.2     1  UNL1        0.2273
      2 O         142.9280  142.6681  162.8793 O.2     1  UNL1       -0.2747
      3 N         142.4690  140.1556  163.3558 N.am    1  UNL1       -0.3001
      4 H         141.9529  139.3354  163.1826 H       1  UNL1        0.1498
      5 C         141.0278  141.4312  161.6106 C.3     1  UNL1        0.1157
      6 C         139.8551  144.1969  160.3359 C.3     1  UNL1        0.0750
      7 C         139.1771  143.3444  161.3671 C.ar    1  UNL1        0.1512
      8 O         137.8409  143.6135  161.9935 O.2     1  UNL1       -0.3581
      9 N         137.5542  142.5086  162.9666 N.ar    1  UNL1       -0.0776
     10 C         138.7132  141.5566  162.9416 C.ar    1  UNL1        0.1207
     11 C         139.7161  142.0732  161.9531 C.ar    1  UNL1        0.0407
     12 C         138.8458  140.3073  163.7612 C.ar    1  UNL1        0.0418
     13 C         138.5205  138.9744  163.1549 C.ar    1  UNL1        0.0600
     14 CL        138.0625  138.8908  161.7290 Cl      1  UNL1       -0.0822
     15 C         138.6531  137.7252  163.9746 C.ar    1  UNL1        0.0115
     16 C         139.1111  137.8089  165.4005 C.ar    1  UNL1        0.0017
     17 C         139.4364  139.1417  166.0068 C.ar    1  UNL1        0.0115
     18 C         139.3037  140.3909  165.1872 C.ar    1  UNL1        0.0600
     19 CL        139.6290  141.7239  165.7934 Cl      1  UNL1       -0.0822
     20 C         143.5828  140.1428  164.3605 C.3     1  UNL1        0.1179
     21 C         143.2868  140.3817  165.8115 C.ar    1  UNL1        0.0168
     22 C         143.1462  141.7833  166.3273 C.ar    1  UNL1        0.0037
     23 C         142.8502  142.0222  167.7782 C.ar    1  UNL1        0.0574
     24 C         142.6948  140.8597  168.7134 C.ar    1  UNL1        0.2251
     25 N         142.8355  139.4582  168.1976 N.ar    1  UNL1       -0.2104
     26 C         143.1314  139.2192  166.7466 C.ar    1  UNL1        0.0994
     27 O         142.3989  141.0986  170.1644 O.3     1  UNL1       -0.4509
     28 C         140.9861  141.3268  170.6140 C.3     1  UNL1        0.3095
     29 C         139.8493  140.7006  169.8621 C.3     1  UNL1        0.4381
     30 F         138.7125  140.0742  169.1102 F       1  UNL1       -0.1663
     31 F         139.6264  141.9885  169.1261 F       1  UNL1       -0.1663
     32 F         140.0722  139.4127  170.5980 F       1  UNL1       -0.1663
@<TRIPOS>BOND
     1     6     7    1
     2     7     8   ar
     3     8     9   ar
     4     9    10   ar
     5    10    12    1
     6    12    13   ar
     7    13    14    1
     8    13    15   ar
     9    15    16   ar
    10    16    17   ar
    11    17    18   ar
    12    18    19    1
    13    10    11   ar
    14    11     5    1
    15     5     1    1
    16     1     2    2
    17     1     3   am
    18     3    20    1
    19    20    21    1
    20    21    22   ar
    21    22    23   ar
    22    23    24   ar
    23    24    27    1
    24    27    28    1
    25    28    29    1
    26    29    30    1
    27    29    31    1
    28    29    32    1
    29    24    25   ar
    30    25    26   ar
    31    11     7   ar
    32    26    21   ar
    33    18    12   ar
    34     3     4    1
@<TRIPOS>MOLECULE
*****
 32 34 0 0 0
SMALL
GASTEIGER

@<TRIPOS>ATOM
      1 C         139.3642  138.8214  163.2986 C.2     1  UNL1        0.2273
      2 O         138.2781  139.8554  163.3374 O.2     1  UNL1       -0.2747
      3 N         139.9526  138.4008  161.9845 N.am    1  UNL1       -0.3001
      4 H         140.6654  137.7222  161.9590 H       1  UNL1        0.1498
      5 C         139.8616  138.2082  164.5738 C.3     1  UNL1        0.1157
      6 C         137.7252  138.4913  167.0243 C.3     1  UNL1        0.0750
      7 C         139.0499  139.1879  166.9246 C.ar    1  UNL1        0.1512
      8 O         139.6251  140.1370  167.9338 O.2     1  UNL1       -0.3581
      9 N         140.9627  140.5933  167.4311 N.ar    1  UNL1       -0.0776
     10 C         141.2141  139.9263  166.1113 C.ar    1  UNL1        0.1207
     11 C         140.0319  139.0577  165.7983 C.ar    1  UNL1        0.0407
     12 C         142.4336  140.0979  165.2549 C.ar    1  UNL1        0.0418
     13 C         143.6187  139.1991  165.4488 C.ar    1  UNL1        0.0600
     14 CL        143.5844  138.1287  166.4991 Cl      1  UNL1       -0.0822
     15 C         144.8382  139.3706  164.5924 C.ar    1  UNL1        0.0115
     16 C         144.8725  140.4410  163.5421 C.ar    1  UNL1        0.0017
     17 C         143.6874  141.3398  163.3481 C.ar    1  UNL1        0.0115
     18 C         142.4680  141.1682  164.2046 C.ar    1  UNL1        0.0600
     19 CL        141.2828  142.0670  164.0107 Cl      1  UNL1       -0.0822
     20 C         139.4550  139.0142  160.7093 C.3     1  UNL1        0.1179
     21 C         139.5305  140.4992  160.5119 C.ar    1  UNL1        0.0168
     22 C         140.8593  141.1942  160.5494 C.ar    1  UNL1        0.0037
     23 C         140.9348  142.6792  160.3520 C.ar    1  UNL1        0.0574
     24 C         139.6815  143.4693  160.1171 C.ar    1  UNL1        0.2251
     25 N         138.3528  142.7743  160.0796 N.ar    1  UNL1       -0.2104
     26 C         138.2772  141.2892  160.2770 C.ar    1  UNL1        0.0994
     27 O         139.7570  144.9544  159.9197 O.3     1  UNL1       -0.4509
     28 C         140.3562  145.8231  160.9856 C.3     1  UNL1        0.3095
     29 C         140.1196  145.5062  162.4325 C.3     1  UNL1        0.4381
     30 F         139.8828  145.1893  163.8794 F       1  UNL1       -0.1663
     31 F         141.5916  145.2931  162.6267 F       1  UNL1       -0.1663
     32 F         138.6475  145.7193  162.2383 F       1  UNL1       -0.1663
@<TRIPOS>BOND
     1     6     7    1
     2     7     8   ar
     3     8     9   ar
     4     9    10   ar
     5    10    12    1
     6    12    13   ar
     7    13    14    1
     8    13    15   ar
     9    15    16   ar
    10    16    17   ar
    11    17    18   ar
    12    18    19    1
    13    10    11   ar
    14    11     5    1
    15     5     1    1
    16     1     2    2
    17     1     3   am
    18     3    20    1
    19    20    21    1
    20    21    22   ar
    21    22    23   ar
    22    23    24   ar
    23    24    27    1
    24    27    28    1
    25    28    29    1
    26    29    30    1
    27    29    31    1
    28    29    32    1
    29    24    25   ar
    30    25    26   ar
    31    11     7   ar
    32    26    21   ar
    33    18    12   ar
    34     3     4    1
@<TRIPOS>MOLECULE
*****
 32 34 0 0 0
SMALL
GASTEIGER

@<TRIPOS>ATOM
      1 C         139.9900  142.8658  165.4767 C.2     1  UNL1        0.2273
      2 O         139.2663  141.7796  164.7374 O.2     1  UNL1       -0.2747
      3 N         139.7234  144.3043  165.1458 N.am    1  UNL1       -0.3001
      4 H         140.1984  145.0172  165.6310 H       1  UNL1        0.1498
      5 C         140.9802  142.5133  166.5468 C.3     1  UNL1        0.1157
      6 C         140.3933  143.6587  169.5456 C.3     1  UNL1        0.0750
      7 C         140.2775  142.2280  169.1099 C.ar    1  UNL1        0.1512
      8 O         139.8715  141.0727  169.9762 O.2     1  UNL1       -0.3581
      9 N         139.8905  139.8322  169.1331 N.ar    1  UNL1       -0.0776
     10 C         140.3081  140.2208  167.7458 C.ar    1  UNL1        0.1207
     11 C         140.5473  141.7015  167.7315 C.ar    1  UNL1        0.0407
     12 C         140.4599  139.2918  166.5779 C.ar    1  UNL1        0.0418
     13 C         141.8280  138.9221  166.0866 C.ar    1  UNL1        0.0600
     14 CL        143.0444  139.4814  166.7630 Cl      1  UNL1       -0.0822
     15 C         141.9798  137.9931  164.9187 C.ar    1  UNL1        0.0115
     16 C         140.7634  137.4338  164.2422 C.ar    1  UNL1        0.0017
     17 C         139.3953  137.8035  164.7336 C.ar    1  UNL1        0.0115
     18 C         139.2435  138.7325  165.9015 C.ar    1  UNL1        0.0600
     19 CL        137.8753  139.1023  166.3929 Cl      1  UNL1       -0.0822
     20 C         138.7331  144.6567  164.0757 C.3     1  UNL1        0.1179
     21 C         139.1452  144.6281  162.6337 C.ar    1  UNL1        0.0168
     22 C         140.0237  145.7123  162.0832 C.ar    1  UNL1        0.0037
     23 C         140.4358  145.6837  160.6412 C.ar    1  UNL1        0.0574
     24 C         139.9694  144.5711  159.7497 C.ar    1  UNL1        0.2251
     25 N         139.0910  143.4871  160.3003 N.ar    1  UNL1       -0.2104
     26 C         138.6789  143.5155  161.7423 C.ar    1  UNL1        0.0994
     27 O         140.3815  144.5425  158.3077 O.3     1  UNL1       -0.4509
     28 C         140.5847  145.8270  157.5602 C.3     1  UNL1        0.3095
     29 C         139.5605  146.2857  156.5649 C.3     1  UNL1        0.4381
     30 F         138.5363  146.7445  155.5697 F       1  UNL1       -0.1663
     31 F         139.8818  145.1091  155.6918 F       1  UNL1       -0.1663
     32 F         139.2392  147.4624  157.4380 F       1  UNL1       -0.1663
@<TRIPOS>BOND
     1     6     7    1
     2     7     8   ar
     3     8     9   ar
     4     9    10   ar
     5    10    12    1
     6    12    13   ar
     7    13    14    1
     8    13    15   ar
     9    15    16   ar
    10    16    17   ar
    11    17    18   ar
    12    18    19    1
    13    10    11   ar
    14    11     5    1
    15     5     1    1
    16     1     2    2
    17     1     3   am
    18     3    20    1
    19    20    21    1
    20    21    22   ar
    21    22    23   ar
    22    23    24   ar
    23    24    27    1
    24    27    28    1
    25    28    29    1
    26    29    30    1
    27    29    31    1
    28    29    32    1
    29    24    25   ar
    30    25    26   ar
    31    11     7   ar
    32    26    21   ar
    33    18    12   ar
    34     3     4    1
@<TRIPOS>MOLECULE
*****
 32 34 0 0 0
SMALL
GASTEIGER

@<TRIPOS>ATOM
      1 C         138.9469  140.0113  162.0486 C.2     1  UNL1        0.2273
      2 O         137.5344  140.4907  162.2069 O.2     1  UNL1       -0.2747
      3 N         139.5193  139.0285  163.0266 N.am    1  UNL1       -0.3001
      4 H         140.4463  138.7138  162.9228 H       1  UNL1        0.1498
      5 C         139.7868  140.5146  160.9124 C.3     1  UNL1        0.1157
      6 C         138.9882  141.3463  157.8596 C.3     1  UNL1        0.0750
      7 C         139.2295  142.2938  158.9971 C.ar    1  UNL1        0.1512
      8 O         139.1460  143.7901  158.9310 O.2     1  UNL1       -0.3581
      9 N         139.4615  144.3325  160.2935 N.ar    1  UNL1       -0.0776
     10 C         139.7400  143.1715  161.2015 C.ar    1  UNL1        0.1207
     11 C         139.5966  141.9115  160.4003 C.ar    1  UNL1        0.0407
     12 C         140.0989  143.2557  162.6556 C.ar    1  UNL1        0.0418
     13 C         141.5148  143.0241  163.0933 C.ar    1  UNL1        0.0600
     14 CL        142.5718  142.7084  162.0770 Cl      1  UNL1       -0.0822
     15 C         141.8736  143.1083  164.5472 C.ar    1  UNL1        0.0115
     16 C         140.8165  143.4241  165.5636 C.ar    1  UNL1        0.0017
     17 C         139.4006  143.6556  165.1259 C.ar    1  UNL1        0.0115
     18 C         139.0418  143.5714  163.6719 C.ar    1  UNL1        0.0600
     19 CL        137.6258  143.8030  163.2341 Cl      1  UNL1       -0.0822
     20 C         138.6792  138.5253  164.1629 C.3     1  UNL1        0.1179
     21 C         138.9284  139.0206  165.5566 C.ar    1  UNL1        0.0168
     22 C         140.1392  139.8560  165.8504 C.ar    1  UNL1        0.0037
     23 C         140.3885  140.3513  167.2441 C.ar    1  UNL1        0.0574
     24 C         139.4270  140.0112  168.3441 C.ar    1  UNL1        0.2251
     25 N         138.2163  139.1759  168.0504 N.ar    1  UNL1       -0.2104
     26 C         137.9669  138.6805  166.6566 C.ar    1  UNL1        0.0994
     27 O         139.6762  140.5065  169.7379 O.3     1  UNL1       -0.4509
     28 C         140.7829  141.4847  169.9995 C.3     1  UNL1        0.3095
     29 C         140.5080  142.9585  169.9523 C.3     1  UNL1        0.4381
     30 F         140.2332  144.4324  169.9049 F       1  UNL1       -0.1663
     31 F         139.1834  142.7330  170.6190 F       1  UNL1       -0.1663
     32 F         141.8326  143.1841  169.2855 F       1  UNL1       -0.1663
@<TRIPOS>BOND
     1     6     7    1
     2     7     8   ar
     3     8     9   ar
     4     9    10   ar
     5    10    12    1
     6    12    13   ar
     7    13    14    1
     8    13    15   ar
     9    15    16   ar
    10    16    17   ar
    11    17    18   ar
    12    18    19    1
    13    10    11   ar
    14    11     5    1
    15     5     1    1
    16     1     2    2
    17     1     3   am
    18     3    20    1
    19    20    21    1
    20    21    22   ar
    21    22    23   ar
    22    23    24   ar
    23    24    27    1
    24    27    28    1
    25    28    29    1
    26    29    30    1
    27    29    31    1
    28    29    32    1
    29    24    25   ar
    30    25    26   ar
    31    11     7   ar
    32    26    21   ar
    33    18    12   ar
    34     3     4    1
