@<TRIPOS>MOLECULE
*****
 23 25 0 0 0
SMALL
GASTEIGER

@<TRIPOS>ATOM
      1 C         144.2427  139.3237  163.6505 C.3     1  UNL1        0.0896
      2 N         143.0587  139.7354  164.4743 N.3     1  UNL1       -0.2715
      3 C         143.2616  140.3022  165.8482 C.3     1  UNL1        0.0725
      4 C         142.0775  140.7139  166.6720 C.3     1  UNL1        0.0238
      5 C         140.6907  140.5588  166.1219 C.3     1  UNL1        0.0489
      6 C         140.4879  139.9920  164.7480 C.3     1  UNL1        0.0238
      7 C         141.6719  139.5803  163.9242 C.3     1  UNL1        0.0725
      8 C         140.3737  141.1421  167.4670 C.ar    1  UNL1       -0.0204
      9 C         139.7076  140.2977  168.5125 C.ar    1  UNL1       -0.0042
     10 C         139.3905  140.8809  169.8576 C.ar    1  UNL1       -0.0003
     11 C         139.7395  142.3086  170.1571 C.ar    1  UNL1       -0.0000
     12 C         140.4057  143.1531  169.1116 C.ar    1  UNL1       -0.0003
     13 C         140.7227  142.5698  167.7665 C.ar    1  UNL1       -0.0042
     14 C         139.1937  140.6063  166.0389 C.3     1  UNL1        0.1466
     15 O         138.5270  141.0869  164.7841 O.3     1  UNL1       -0.3486
     16 C         137.9750  142.4799  164.7144 C.3     1  UNL1        0.1702
     17 C         138.7084  143.5397  163.9470 C.ar    1  UNL1        0.0269
     18 C         137.9906  144.3407  162.9013 C.ar    1  UNL1        0.0970
     19 N         138.7241  145.4005  162.1339 N.ar    1  UNL1       -0.2421
     20 C         140.1751  145.6593  162.4121 C.ar    1  UNL1        0.1055
     21 C         140.8929  144.8583  163.4577 C.ar    1  UNL1        0.0535
     22 BR        142.3439  145.1172  163.7359 Br      1  UNL1       -0.0474
     23 C         140.1595  143.7985  164.2252 C.ar    1  UNL1        0.0080
@<TRIPOS>BOND
     1     1     2    1
     2     2     3    1
     3     3     4    1
     4     4     5    1
     5     5    14    1
     6    14    15    1
     7    15    16    1
     8    16    17    1
     9    17    18   ar
    10    18    19   ar
    11    19    20   ar
    12    20    21   ar
    13    21    22    1
    14    21    23   ar
    15     5     8    1
    16     8     9   ar
    17     9    10   ar
    18    10    11   ar
    19    11    12   ar
    20    12    13   ar
    21     5     6    1
    22     6     7    1
    23     7     2    1
    24    23    17   ar
    25    13     8   ar
@<TRIPOS>MOLECULE
*****
 23 25 0 0 0
SMALL
GASTEIGER

@<TRIPOS>ATOM
      1 C         138.7465  144.4247  163.6716 C.3     1  UNL1        0.0896
      2 N         138.9825  143.2189  164.5321 N.3     1  UNL1       -0.2715
      3 C         139.9315  143.2987  165.6910 C.3     1  UNL1        0.0725
      4 C         140.1675  142.0929  166.5515 C.3     1  UNL1        0.0238
      5 C         139.4546  140.8074  166.2531 C.3     1  UNL1        0.0489
      6 C         138.5056  140.7277  165.0942 C.3     1  UNL1        0.0238
      7 C         138.2695  141.9334  164.2337 C.3     1  UNL1        0.0725
      8 C         140.2522  140.3904  167.4531 C.ar    1  UNL1       -0.0204
      9 C         141.7211  140.1179  167.3196 C.ar    1  UNL1       -0.0042
     10 C         142.5187  139.7009  168.5195 C.ar    1  UNL1       -0.0003
     11 C         141.8473  139.5564  169.8530 C.ar    1  UNL1       -0.0000
     12 C         140.3784  139.8289  169.9867 C.ar    1  UNL1       -0.0003
     13 C         139.5808  140.2459  168.7866 C.ar    1  UNL1       -0.0042
     14 C         139.0185  139.3770  166.3715 C.3     1  UNL1        0.1466
     15 O         138.9648  138.5060  165.1515 O.3     1  UNL1       -0.3486
     16 C         140.0426  137.4920  164.9059 C.3     1  UNL1        0.1702
     17 C         141.1895  137.8217  163.9970 C.ar    1  UNL1        0.0269
     18 C         141.1263  137.4509  162.5449 C.ar    1  UNL1        0.0970
     19 N         142.2732  137.7806  161.6362 N.ar    1  UNL1       -0.2421
     20 C         143.4832  138.4811  162.1794 C.ar    1  UNL1        0.1055
     21 C         143.5464  138.8519  163.6315 C.ar    1  UNL1        0.0535
     22 BR        144.7564  139.5524  164.1747 Br      1  UNL1       -0.0474
     23 C         142.3995  138.5222  164.5403 C.ar    1  UNL1        0.0080
@<TRIPOS>BOND
     1     1     2    1
     2     2     3    1
     3     3     4    1
     4     4     5    1
     5     5    14    1
     6    14    15    1
     7    15    16    1
     8    16    17    1
     9    17    18   ar
    10    18    19   ar
    11    19    20   ar
    12    20    21   ar
    13    21    22    1
    14    21    23   ar
    15     5     8    1
    16     8     9   ar
    17     9    10   ar
    18    10    11   ar
    19    11    12   ar
    20    12    13   ar
    21     5     6    1
    22     6     7    1
    23     7     2    1
    24    23    17   ar
    25    13     8   ar
@<TRIPOS>MOLECULE
*****
 23 25 0 0 0
SMALL
GASTEIGER

@<TRIPOS>ATOM
      1 C         139.6131  146.3421  161.3683 C.3     1  UNL1        0.0896
      2 N         139.7087  145.3601  162.4981 N.3     1  UNL1       -0.2715
      3 C         140.9957  145.2092  163.2537 C.3     1  UNL1        0.0725
      4 C         141.0913  144.2272  164.3836 C.3     1  UNL1        0.0238
      5 C         139.9000  143.3961  164.7577 C.3     1  UNL1        0.0489
      6 C         138.6131  143.5470  164.0021 C.3     1  UNL1        0.0238
      7 C         138.5175  144.5290  162.8723 C.3     1  UNL1        0.0725
      8 C         140.8930  142.8962  165.7648 C.ar    1  UNL1       -0.0204
      9 C         140.4837  142.7174  167.1967 C.ar    1  UNL1       -0.0042
     10 C         141.4767  142.2175  168.2038 C.ar    1  UNL1       -0.0003
     11 C         142.8790  141.8966  167.7789 C.ar    1  UNL1       -0.0000
     12 C         143.2883  142.0755  166.3470 C.ar    1  UNL1       -0.0003
     13 C         142.2953  142.5753  165.3399 C.ar    1  UNL1       -0.0042
     14 C         139.0536  142.3914  165.4817 C.3     1  UNL1        0.1466
     15 O         138.1858  141.4444  164.7069 O.3     1  UNL1       -0.3486
     16 C         138.1790  139.9837  165.0479 C.3     1  UNL1        0.1702
     17 C         139.3196  139.1084  164.6203 C.ar    1  UNL1        0.0269
     18 C         139.1562  138.1801  163.4534 C.ar    1  UNL1        0.0970
     19 N         140.2968  137.3049  163.0259 N.ar    1  UNL1       -0.2421
     20 C         141.6008  137.3578  163.7653 C.ar    1  UNL1        0.1055
     21 C         141.7643  138.2860  164.9322 C.ar    1  UNL1        0.0535
     22 BR        143.0683  138.3389  165.6716 Br      1  UNL1       -0.0474
     23 C         140.6236  139.1613  165.3598 C.ar    1  UNL1        0.0080
@<TRIPOS>BOND
     1     1     2    1
     2     2     3    1
     3     3     4    1
     4     4     5    1
     5     5    14    1
     6    14    15    1
     7    15    16    1
     8    16    17    1
     9    17    18   ar
    10    18    19   ar
    11    19    20   ar
    12    20    21   ar
    13    21    22    1
    14    21    23   ar
    15     5     8    1
    16     8     9   ar
    17     9    10   ar
    18    10    11   ar
    19    11    12   ar
    20    12    13   ar
    21     5     6    1
    22     6     7    1
    23     7     2    1
    24    23    17   ar
    25    13     8   ar
@<TRIPOS>MOLECULE
*****
 23 25 0 0 0
SMALL
GASTEIGER

@<TRIPOS>ATOM
      1 C         144.4511  143.1691  163.5566 C.3     1  UNL1        0.0896
      2 N         143.6298  142.2400  164.4006 N.3     1  UNL1       -0.2715
      3 C         143.4980  142.4846  165.8746 C.3     1  UNL1        0.0725
      4 C         142.6767  141.5555  166.7185 C.3     1  UNL1        0.0238
      5 C         141.9872  140.3818  166.0885 C.3     1  UNL1        0.0489
      6 C         142.1190  140.1373  164.6144 C.3     1  UNL1        0.0238
      7 C         142.9403  141.0664  163.7705 C.3     1  UNL1        0.0725
      8 C         141.5650  140.1964  167.5159 C.ar    1  UNL1       -0.0204
      9 C         140.2140  140.6678  167.9657 C.ar    1  UNL1       -0.0042
     10 C         139.7918  140.4825  169.3930 C.ar    1  UNL1       -0.0003
     11 C         140.7207  139.8256  170.3706 C.ar    1  UNL1       -0.0000
     12 C         142.0718  139.3541  169.9208 C.ar    1  UNL1       -0.0003
     13 C         142.4940  139.5396  168.4934 C.ar    1  UNL1       -0.0042
     14 C         141.1510  139.1437  165.9541 C.3     1  UNL1        0.1466
     15 O         140.2225  138.9890  164.7862 O.3     1  UNL1       -0.3486
     16 C         138.8080  139.4790  164.8826 C.3     1  UNL1        0.1702
     17 C         138.4306  140.8026  164.2864 C.ar    1  UNL1        0.0269
     18 C         137.7096  140.8549  162.9720 C.ar    1  UNL1        0.0970
     19 N         137.3322  142.1785  162.3758 N.ar    1  UNL1       -0.2421
     20 C         137.6757  143.4499  163.0938 C.ar    1  UNL1        0.1055
     21 C         138.3967  143.3976  164.4082 C.ar    1  UNL1        0.0535
     22 BR        138.7403  144.6690  165.1262 Br      1  UNL1       -0.0474
     23 C         138.7742  142.0740  165.0045 C.ar    1  UNL1        0.0080
@<TRIPOS>BOND
     1     1     2    1
     2     2     3    1
     3     3     4    1
     4     4     5    1
     5     5    14    1
     6    14    15    1
     7    15    16    1
     8    16    17    1
     9    17    18   ar
    10    18    19   ar
    11    19    20   ar
    12    20    21   ar
    13    21    22    1
    14    21    23   ar
    15     5     8    1
    16     8     9   ar
    17     9    10   ar
    18    10    11   ar
    19    11    12   ar
    20    12    13   ar
    21     5     6    1
    22     6     7    1
    23     7     2    1
    24    23    17   ar
    25    13     8   ar
@<TRIPOS>MOLECULE
*****
 23 25 0 0 0
SMALL
GASTEIGER

@<TRIPOS>ATOM
      1 C         140.1601  142.7989  170.7080 C.3     1  UNL1        0.0896
      2 N         140.5965  142.0254  169.4991 N.3     1  UNL1       -0.2715
      3 C         141.8933  142.3592  168.8231 C.3     1  UNL1        0.0725
      4 C         142.3297  141.5857  167.6143 C.3     1  UNL1        0.0238
      5 C         141.4694  140.4785  167.0815 C.3     1  UNL1        0.0489
      6 C         140.1727  140.1448  167.7575 C.3     1  UNL1        0.0238
      7 C         139.7362  140.9182  168.9663 C.3     1  UNL1        0.0725
      8 C         142.6043  140.4208  166.1023 C.ar    1  UNL1       -0.0204
      9 C         143.3246  139.1268  165.8645 C.ar    1  UNL1       -0.0042
     10 C         144.4595  139.0690  164.8853 C.ar    1  UNL1       -0.0003
     11 C         144.8740  140.3053  164.1440 C.ar    1  UNL1       -0.0000
     12 C         144.1537  141.5994  164.3817 C.ar    1  UNL1       -0.0003
     13 C         143.0188  141.6572  165.3609 C.ar    1  UNL1       -0.0042
     14 C         141.0032  139.3512  166.2085 C.3     1  UNL1        0.1466
     15 O         139.5557  139.2450  165.8301 O.3     1  UNL1       -0.3486
     16 C         139.1337  139.4699  164.4083 C.3     1  UNL1        0.1702
     17 C         138.6746  140.8284  163.9681 C.ar    1  UNL1        0.0269
     18 C         137.9110  140.9831  162.6863 C.ar    1  UNL1        0.0970
     19 N         137.4519  142.3417  162.2463 N.ar    1  UNL1       -0.2421
     20 C         137.7564  143.5453  163.0879 C.ar    1  UNL1        0.1055
     21 C         138.5200  143.3906  164.3697 C.ar    1  UNL1        0.0535
     22 BR        138.8244  144.5943  165.2113 Br      1  UNL1       -0.0474
     23 C         138.9791  142.0321  164.8098 C.ar    1  UNL1        0.0080
@<TRIPOS>BOND
     1     1     2    1
     2     2     3    1
     3     3     4    1
     4     4     5    1
     5     5    14    1
     6    14    15    1
     7    15    16    1
     8    16    17    1
     9    17    18   ar
    10    18    19   ar
    11    19    20   ar
    12    20    21   ar
    13    21    22    1
    14    21    23   ar
    15     5     8    1
    16     8     9   ar
    17     9    10   ar
    18    10    11   ar
    19    11    12   ar
    20    12    13   ar
    21     5     6    1
    22     6     7    1
    23     7     2    1
    24    23    17   ar
    25    13     8   ar
@<TRIPOS>MOLECULE
*****
 23 25 0 0 0
SMALL
GASTEIGER

@<TRIPOS>ATOM
      1 C         138.8594  137.7341  163.2916 C.3     1  UNL1        0.0896
      2 N         139.5105  138.5517  164.3675 N.3     1  UNL1       -0.2715
      3 C         138.6818  139.1271  165.4774 C.3     1  UNL1        0.0725
      4 C         139.3329  139.9447  166.5533 C.3     1  UNL1        0.0238
      5 C         140.8128  140.1868  166.5193 C.3     1  UNL1        0.0489
      6 C         141.6416  139.6113  165.4094 C.3     1  UNL1        0.0238
      7 C         140.9904  138.7938  164.3335 C.3     1  UNL1        0.0725
      8 C         140.4548  140.9368  167.7681 C.ar    1  UNL1       -0.0204
      9 C         140.7963  142.3920  167.8929 C.ar    1  UNL1       -0.0042
     10 C         140.4383  143.1421  169.1416 C.ar    1  UNL1       -0.0003
     11 C         139.7389  142.4368  170.2655 C.ar    1  UNL1       -0.0000
     12 C         139.3974  140.9815  170.1408 C.ar    1  UNL1       -0.0003
     13 C         139.7554  140.2315  168.8921 C.ar    1  UNL1       -0.0042
     14 C         142.1685  140.6894  166.9190 C.3     1  UNL1        0.1466
     15 O         143.2045  140.9670  165.8705 O.3     1  UNL1       -0.3486
     16 C         143.7007  142.3667  165.6585 C.3     1  UNL1        0.1702
     17 C         143.1130  143.2138  164.5690 C.ar    1  UNL1        0.0269
     18 C         143.9796  143.6950  163.4431 C.ar    1  UNL1        0.0970
     19 N         143.3919  144.5420  162.3536 N.ar    1  UNL1       -0.2421
     20 C         141.9377  144.9079  162.3899 C.ar    1  UNL1        0.1055
     21 C         141.0711  144.4266  163.5157 C.ar    1  UNL1        0.0535
     22 BR        139.6168  144.7925  163.5520 Br      1  UNL1       -0.0474
     23 C         141.6587  143.5796  164.6053 C.ar    1  UNL1        0.0080
@<TRIPOS>BOND
     1     1     2    1
     2     2     3    1
     3     3     4    1
     4     4     5    1
     5     5    14    1
     6    14    15    1
     7    15    16    1
     8    16    17    1
     9    17    18   ar
    10    18    19   ar
    11    19    20   ar
    12    20    21   ar
    13    21    22    1
    14    21    23   ar
    15     5     8    1
    16     8     9   ar
    17     9    10   ar
    18    10    11   ar
    19    11    12   ar
    20    12    13   ar
    21     5     6    1
    22     6     7    1
    23     7     2    1
    24    23    17   ar
    25    13     8   ar
@<TRIPOS>MOLECULE
*****
 23 25 0 0 0
SMALL
GASTEIGER

@<TRIPOS>ATOM
      1 C         143.1608  140.0770  170.9557 C.3     1  UNL1        0.0896
      2 N         142.9095  140.4807  169.5331 N.3     1  UNL1       -0.2715
      3 C         143.2970  141.8513  169.0628 C.3     1  UNL1        0.0725
      4 C         143.0457  142.2551  167.6402 C.3     1  UNL1        0.0238
      5 C         142.4068  141.2882  166.6879 C.3     1  UNL1        0.0489
      6 C         142.0193  139.9176  167.1581 C.3     1  UNL1        0.0238
      7 C         142.2706  139.5139  168.5807 C.3     1  UNL1        0.0725
      8 C         142.5952  142.4651  165.7770 C.ar    1  UNL1       -0.0204
      9 C         141.4151  143.0622  165.0694 C.ar    1  UNL1       -0.0042
     10 C         141.6035  144.2390  164.1585 C.ar    1  UNL1       -0.0003
     11 C         142.9720  144.8186  163.9552 C.ar    1  UNL1       -0.0000
     12 C         144.1521  144.2214  164.6628 C.ar    1  UNL1       -0.0003
     13 C         143.9637  143.0446  165.5737 C.ar    1  UNL1       -0.0042
     14 C         141.8333  140.7300  165.4191 C.3     1  UNL1        0.1466
     15 O         142.3497  139.4334  164.8695 O.3     1  UNL1       -0.3486
     16 C         142.6920  139.3193  163.4135 C.3     1  UNL1        0.1702
     17 C         143.3588  140.4628  162.7080 C.ar    1  UNL1        0.0269
     18 C         144.8344  140.6827  162.8644 C.ar    1  UNL1        0.0970
     19 N         145.5011  141.8262  162.1589 N.ar    1  UNL1       -0.2421
     20 C         144.6923  142.7498  161.2970 C.ar    1  UNL1        0.1055
     21 C         143.2168  142.5299  161.1406 C.ar    1  UNL1        0.0535
     22 BR        142.4081  143.4536  160.2787 Br      1  UNL1       -0.0474
     23 C         142.5500  141.3864  161.8461 C.ar    1  UNL1        0.0080
@<TRIPOS>BOND
     1     1     2    1
     2     2     3    1
     3     3     4    1
     4     4     5    1
     5     5    14    1
     6    14    15    1
     7    15    16    1
     8    16    17    1
     9    17    18   ar
    10    18    19   ar
    11    19    20   ar
    12    20    21   ar
    13    21    22    1
    14    21    23   ar
    15     5     8    1
    16     8     9   ar
    17     9    10   ar
    18    10    11   ar
    19    11    12   ar
    20    12    13   ar
    21     5     6    1
    22     6     7    1
    23     7     2    1
    24    23    17   ar
    25    13     8   ar
@<TRIPOS>MOLECULE
*****
 23 25 0 0 0
SMALL
GASTEIGER

@<TRIPOS>ATOM
      1 C         140.4563  140.0464  170.6032 C.3     1  UNL1        0.0896
      2 N         140.9985  140.5848  169.3124 N.3     1  UNL1       -0.2715
      3 C         142.1727  139.9204  168.6569 C.3     1  UNL1        0.0725
      4 C         142.7148  140.4587  167.3661 C.3     1  UNL1        0.0238
      5 C         142.0828  141.6616  166.7308 C.3     1  UNL1        0.0489
      6 C         140.9086  142.3260  167.3862 C.3     1  UNL1        0.0238
      7 C         140.3664  141.7876  168.6771 C.3     1  UNL1        0.0725
      8 C         143.1685  141.3810  165.7344 C.ar    1  UNL1       -0.0204
      9 C         144.0633  142.4907  165.2678 C.ar    1  UNL1       -0.0042
     10 C         145.1489  142.2102  164.2715 C.ar    1  UNL1       -0.0003
     11 C         145.3398  140.8199  163.7418 C.ar    1  UNL1       -0.0000
     12 C         144.4450  139.7101  164.2084 C.ar    1  UNL1       -0.0003
     13 C         143.3593  139.9907  165.2047 C.ar    1  UNL1       -0.0042
     14 C         141.8278  142.7670  165.7494 C.3     1  UNL1        0.1466
     15 O         140.5007  142.8638  165.0570 O.3     1  UNL1       -0.3486
     16 C         140.1800  141.9419  163.9179 C.3     1  UNL1        0.1702
     17 C         139.7600  140.5284  164.1926 C.ar    1  UNL1        0.0269
     18 C         140.1495  139.4327  163.2450 C.ar    1  UNL1        0.0970
     19 N         139.7295  138.0192  163.5197 N.ar    1  UNL1       -0.2421
     20 C         138.9201  137.7012  164.7418 C.ar    1  UNL1        0.1055
     21 C         138.5306  138.7969  165.6894 C.ar    1  UNL1        0.0535
     22 BR        137.7212  138.4790  166.9116 Br      1  UNL1       -0.0474
     23 C         138.9506  140.2105  165.4148 C.ar    1  UNL1        0.0080
@<TRIPOS>BOND
     1     1     2    1
     2     2     3    1
     3     3     4    1
     4     4     5    1
     5     5    14    1
     6    14    15    1
     7    15    16    1
     8    16    17    1
     9    17    18   ar
    10    18    19   ar
    11    19    20   ar
    12    20    21   ar
    13    21    22    1
    14    21    23   ar
    15     5     8    1
    16     8     9   ar
    17     9    10   ar
    18    10    11   ar
    19    11    12   ar
    20    12    13   ar
    21     5     6    1
    22     6     7    1
    23     7     2    1
    24    23    17   ar
    25    13     8   ar
@<TRIPOS>MOLECULE
*****
 23 25 0 0 0
SMALL
GASTEIGER

@<TRIPOS>ATOM
      1 C         141.8349  141.7938  170.0710 C.3     1  UNL1        0.0896
      2 N         141.0384  141.4370  168.8510 N.3     1  UNL1       -0.2715
      3 C         141.2476  142.1916  167.5716 C.3     1  UNL1        0.0725
      4 C         140.4511  141.8348  166.3516 C.3     1  UNL1        0.0238
      5 C         139.4455  140.7234  166.4110 C.3     1  UNL1        0.0489
      6 C         139.2364  139.9688  167.6904 C.3     1  UNL1        0.0238
      7 C         140.0329  140.3256  168.9104 C.3     1  UNL1        0.0725
      8 C         139.2862  141.1426  164.9796 C.ar    1  UNL1       -0.0204
      9 C         140.4896  141.2475  164.0904 C.ar    1  UNL1       -0.0042
     10 C         140.3304  141.6667  162.6590 C.ar    1  UNL1       -0.0003
     11 C         138.9676  141.9810  162.1169 C.ar    1  UNL1       -0.0000
     12 C         137.7641  141.8761  163.0060 C.ar    1  UNL1       -0.0003
     13 C         137.9234  141.4569  164.4374 C.ar    1  UNL1       -0.0042
     14 C         138.3846  139.7576  165.9733 C.3     1  UNL1        0.1466
     15 O         138.4829  138.3109  166.3571 O.3     1  UNL1       -0.3486
     16 C         138.7098  137.2688  165.3023 C.3     1  UNL1        0.1702
     17 C         139.6237  137.5565  164.1482 C.ar    1  UNL1        0.0269
     18 C         141.1108  137.5005  164.3371 C.ar    1  UNL1        0.0970
     19 N         142.0247  137.7881  163.1830 N.ar    1  UNL1       -0.2421
     20 C         141.4517  138.1318  161.8401 C.ar    1  UNL1        0.1055
     21 C         139.9646  138.1878  161.6512 C.ar    1  UNL1        0.0535
     22 BR        139.3916  138.5315  160.3082 Br      1  UNL1       -0.0474
     23 C         139.0507  137.9002  162.8052 C.ar    1  UNL1        0.0080
@<TRIPOS>BOND
     1     1     2    1
     2     2     3    1
     3     3     4    1
     4     4     5    1
     5     5    14    1
     6    14    15    1
     7    15    16    1
     8    16    17    1
     9    17    18   ar
    10    18    19   ar
    11    19    20   ar
    12    20    21   ar
    13    21    22    1
    14    21    23   ar
    15     5     8    1
    16     8     9   ar
    17     9    10   ar
    18    10    11   ar
    19    11    12   ar
    20    12    13   ar
    21     5     6    1
    22     6     7    1
    23     7     2    1
    24    23    17   ar
    25    13     8   ar
