@<TRIPOS>MOLECULE
*****
 26 29 0 0 0
SMALL
GASTEIGER

@<TRIPOS>ATOM
      1 C         140.7976  142.1539  166.9559 C.ar    1  UNL1        0.0001
      2 C         140.9047  140.9069  166.1292 C.ar    1  UNL1        0.0000
      3 C         140.2672  140.8494  164.7726 C.ar    1  UNL1        0.0001
      4 C         139.5226  142.0389  164.2428 C.ar    1  UNL1        0.0029
      5 C         138.8851  141.9813  162.8862 C.ar    1  UNL1        0.0337
      6 C         138.1405  143.1708  162.3563 C.ar    1  UNL1        0.1336
      7 O         137.5030  143.1133  160.9998 O.3     1  UNL1       -0.5055
      8 C         138.0335  144.4179  163.1831 C.ar    1  UNL1        0.0366
      9 C         138.6710  144.4754  164.5397 C.ar    1  UNL1        0.0031
     10 C         139.4156  143.2859  165.0695 C.ar    1  UNL1        0.0002
     11 C         140.0531  143.3434  166.4260 C.ar    1  UNL1        0.0000
     12 H         137.5699  142.3343  160.4834 H       1  UNL1        0.2922
     13 O         140.3628  142.2135  172.1334 O.3     1  UNL1       -0.5055
     14 C         141.2177  142.2412  170.9012 C.ar    1  UNL1        0.1337
     15 C         142.7101  142.3265  171.0256 C.ar    1  UNL1        0.0366
     16 C         143.5651  142.3543  169.7934 C.ar    1  UNL1        0.0031
     17 C         142.9275  142.2967  168.4368 C.ar    1  UNL1        0.0002
     18 C         141.4352  142.2114  168.3125 C.ar    1  UNL1        0.0030
     19 C         140.5802  142.1837  169.5447 C.ar    1  UNL1        0.0366
     20 H         140.7610  142.2495  172.9809 H       1  UNL1        0.2922
     21 C         138.9922  140.7343  162.0595 C.ar    1  UNL1        0.0029
     22 C         140.0816  140.6038  161.0367 C.ar    1  UNL1        0.0001
     23 C         140.1886  139.3567  160.2099 C.ar    1  UNL1        0.0000
     24 C         139.2062  138.2402  160.4060 C.ar    1  UNL1        0.0000
     25 C         138.1168  138.3708  161.4289 C.ar    1  UNL1        0.0000
     26 C         138.0098  139.6178  162.2556 C.ar    1  UNL1        0.0001
@<TRIPOS>BOND
     1    13    14    1
     2    14    15   ar
     3    15    16   ar
     4    16    17   ar
     5    17    18   ar
     6    18     1    1
     7     1     2   ar
     8     2     3   ar
     9     3     4   ar
    10     4     5   ar
    11     5    21    1
    12    21    22   ar
    13    22    23   ar
    14    23    24   ar
    15    24    25   ar
    16    25    26   ar
    17     5     6   ar
    18     6     7    1
    19     6     8   ar
    20     8     9   ar
    21     9    10   ar
    22    10    11   ar
    23    18    19   ar
    24    19    14   ar
    25    11     1   ar
    26    10     4   ar
    27    26    21   ar
    28    13    20    1
    29     7    12    1
@<TRIPOS>MOLECULE
*****
 26 29 0 0 0
SMALL
GASTEIGER

@<TRIPOS>ATOM
      1 C         140.0661  142.6121  163.0185 C.ar    1  UNL1        0.0001
      2 C         140.9508  143.2735  164.0333 C.ar    1  UNL1        0.0000
      3 C         140.9619  142.7841  165.4511 C.ar    1  UNL1        0.0001
      4 C         140.0884  141.6332  165.8542 C.ar    1  UNL1        0.0029
      5 C         140.0996  141.1438  167.2721 C.ar    1  UNL1        0.0337
      6 C         139.2261  139.9929  167.6751 C.ar    1  UNL1        0.1336
      7 O         139.2372  139.5035  169.0930 O.3     1  UNL1       -0.5055
      8 C         138.3414  139.3314  166.6603 C.ar    1  UNL1        0.0366
      9 C         138.3303  139.8209  165.2424 C.ar    1  UNL1        0.0031
     10 C         139.2038  140.9718  164.8394 C.ar    1  UNL1        0.0002
     11 C         139.1926  141.4612  163.4216 C.ar    1  UNL1        0.0000
     12 H         139.7899  139.9167  169.7269 H       1  UNL1        0.2922
     13 O         141.9462  145.7461  159.3248 O.3     1  UNL1       -0.5055
     14 C         140.9950  144.6685  159.7538 C.ar    1  UNL1        0.1337
     15 C         140.0326  144.0803  158.7648 C.ar    1  UNL1        0.0366
     16 C         139.0814  143.0028  159.1938 C.ar    1  UNL1        0.0031
     17 C         139.0926  142.5133  160.6117 C.ar    1  UNL1        0.0002
     18 C         140.0550  143.1015  161.6006 C.ar    1  UNL1        0.0030
     19 C         141.0062  144.1791  161.1716 C.ar    1  UNL1        0.0366
     20 H         141.9393  146.0518  158.4391 H       1  UNL1        0.2922
     21 C         140.9842  141.8053  168.2869 C.ar    1  UNL1        0.0029
     22 C         142.3919  141.3250  168.4814 C.ar    1  UNL1        0.0001
     23 C         143.2766  141.9865  169.4963 C.ar    1  UNL1        0.0000
     24 C         142.7536  143.1282  170.3165 C.ar    1  UNL1        0.0000
     25 C         141.3459  143.6085  170.1219 C.ar    1  UNL1        0.0000
     26 C         140.4613  142.9471  169.1072 C.ar    1  UNL1        0.0001
@<TRIPOS>BOND
     1    13    14    1
     2    14    15   ar
     3    15    16   ar
     4    16    17   ar
     5    17    18   ar
     6    18     1    1
     7     1     2   ar
     8     2     3   ar
     9     3     4   ar
    10     4     5   ar
    11     5    21    1
    12    21    22   ar
    13    22    23   ar
    14    23    24   ar
    15    24    25   ar
    16    25    26   ar
    17     5     6   ar
    18     6     7    1
    19     6     8   ar
    20     8     9   ar
    21     9    10   ar
    22    10    11   ar
    23    18    19   ar
    24    19    14   ar
    25    11     1   ar
    26    10     4   ar
    27    26    21   ar
    28    13    20    1
    29     7    12    1
@<TRIPOS>MOLECULE
*****
 26 29 0 0 0
SMALL
GASTEIGER

@<TRIPOS>ATOM
      1 C         140.0181  141.1672  166.8546 C.ar    1  UNL1        0.0001
      2 C         140.1625  142.1095  165.6966 C.ar    1  UNL1        0.0000
      3 C         139.9592  141.6130  164.2958 C.ar    1  UNL1        0.0001
      4 C         139.6116  140.1742  164.0531 C.ar    1  UNL1        0.0029
      5 C         139.4083  139.6777  162.6523 C.ar    1  UNL1        0.0337
      6 C         139.0607  138.2389  162.4096 C.ar    1  UNL1        0.1336
      7 O         138.8574  137.7424  161.0088 O.3     1  UNL1       -0.5055
      8 C         138.9163  137.2965  163.5677 C.ar    1  UNL1        0.0366
      9 C         139.1196  137.7930  164.9685 C.ar    1  UNL1        0.0031
     10 C         139.4672  139.2319  165.2112 C.ar    1  UNL1        0.0002
     11 C         139.6705  139.7284  166.6119 C.ar    1  UNL1        0.0000
     12 H         138.9476  138.3310  160.2854 H       1  UNL1        0.2922
     13 O         140.5468  140.2126  171.9349 O.3     1  UNL1       -0.5055
     14 C         140.4858  141.1863  170.7955 C.ar    1  UNL1        0.1337
     15 C         140.6280  142.6566  171.0570 C.ar    1  UNL1        0.0366
     16 C         140.5669  143.6303  169.9177 C.ar    1  UNL1        0.0031
     17 C         140.3636  143.1338  168.5169 C.ar    1  UNL1        0.0002
     18 C         140.2214  141.6637  168.2554 C.ar    1  UNL1        0.0030
     19 C         140.2825  140.6899  169.3948 C.ar    1  UNL1        0.0366
     20 H         140.6738  140.5227  172.8099 H       1  UNL1        0.2922
     21 C         139.5526  140.6201  161.4942 C.ar    1  UNL1        0.0029
     22 C         140.8756  140.7596  160.8012 C.ar    1  UNL1        0.0001
     23 C         141.0199  141.7020  159.6431 C.ar    1  UNL1        0.0000
     24 C         139.8413  142.5048  159.1781 C.ar    1  UNL1        0.0000
     25 C         138.5183  142.3653  159.8711 C.ar    1  UNL1        0.0000
     26 C         138.3740  141.4229  161.0292 C.ar    1  UNL1        0.0001
@<TRIPOS>BOND
     1    13    14    1
     2    14    15   ar
     3    15    16   ar
     4    16    17   ar
     5    17    18   ar
     6    18     1    1
     7     1     2   ar
     8     2     3   ar
     9     3     4   ar
    10     4     5   ar
    11     5    21    1
    12    21    22   ar
    13    22    23   ar
    14    23    24   ar
    15    24    25   ar
    16    25    26   ar
    17     5     6   ar
    18     6     7    1
    19     6     8   ar
    20     8     9   ar
    21     9    10   ar
    22    10    11   ar
    23    18    19   ar
    24    19    14   ar
    25    11     1   ar
    26    10     4   ar
    27    26    21   ar
    28    13    20    1
    29     7    12    1
@<TRIPOS>MOLECULE
*****
 26 29 0 0 0
SMALL
GASTEIGER

@<TRIPOS>ATOM
      1 C         140.5248  141.0066  166.8432 C.ar    1  UNL1        0.0001
      2 C         141.4377  141.5898  165.8057 C.ar    1  UNL1        0.0000
      3 C         141.4548  141.0222  164.4173 C.ar    1  UNL1        0.0001
      4 C         140.5590  139.8713  164.0665 C.ar    1  UNL1        0.0029
      5 C         140.5761  139.3037  162.6781 C.ar    1  UNL1        0.0337
      6 C         139.6803  138.1529  162.3273 C.ar    1  UNL1        0.1336
      7 O         139.6974  137.5852  160.9390 O.3     1  UNL1       -0.5055
      8 C         138.7674  137.5696  163.3649 C.ar    1  UNL1        0.0366
      9 C         138.7503  138.1372  164.7532 C.ar    1  UNL1        0.0031
     10 C         139.6461  139.2881  165.1040 C.ar    1  UNL1        0.0002
     11 C         139.6291  139.8557  166.4923 C.ar    1  UNL1        0.0000
     12 H         140.2676  137.9496  160.2909 H       1  UNL1        0.2922
     13 O         140.5869  140.3072  171.9917 O.3     1  UNL1       -0.5055
     14 C         140.5388  141.2245  170.8058 C.ar    1  UNL1        0.1337
     15 C         140.4735  142.7094  171.0083 C.ar    1  UNL1        0.0366
     16 C         140.4254  143.6266  169.8224 C.ar    1  UNL1        0.0031
     17 C         140.4425  143.0590  168.4340 C.ar    1  UNL1        0.0002
     18 C         140.5077  141.5742  168.2316 C.ar    1  UNL1        0.0030
     19 C         140.5559  140.6569  169.4174 C.ar    1  UNL1        0.0366
     20 H         140.5762  140.6618  172.8589 H       1  UNL1        0.2922
     21 C         141.4890  139.8870  161.6406 C.ar    1  UNL1        0.0029
     22 C         141.0179  141.0211  160.7794 C.ar    1  UNL1        0.0001
     23 C         141.9308  141.6044  159.7418 C.ar    1  UNL1        0.0000
     24 C         143.3148  141.0535  159.5656 C.ar    1  UNL1        0.0000
     25 C         143.7859  139.9193  160.4268 C.ar    1  UNL1        0.0000
     26 C         142.8730  139.3361  161.4643 C.ar    1  UNL1        0.0001
@<TRIPOS>BOND
     1    13    14    1
     2    14    15   ar
     3    15    16   ar
     4    16    17   ar
     5    17    18   ar
     6    18     1    1
     7     1     2   ar
     8     2     3   ar
     9     3     4   ar
    10     4     5   ar
    11     5    21    1
    12    21    22   ar
    13    22    23   ar
    14    23    24   ar
    15    24    25   ar
    16    25    26   ar
    17     5     6   ar
    18     6     7    1
    19     6     8   ar
    20     8     9   ar
    21     9    10   ar
    22    10    11   ar
    23    18    19   ar
    24    19    14   ar
    25    11     1   ar
    26    10     4   ar
    27    26    21   ar
    28    13    20    1
    29     7    12    1
@<TRIPOS>MOLECULE
*****
 26 29 0 0 0
SMALL
GASTEIGER

@<TRIPOS>ATOM
      1 C         141.0188  142.3661  166.6603 C.ar    1  UNL1        0.0001
      2 C         141.7821  141.5665  165.6463 C.ar    1  UNL1        0.0000
      3 C         141.3505  141.5692  164.2098 C.ar    1  UNL1        0.0001
      4 C         140.1556  142.3715  163.7872 C.ar    1  UNL1        0.0029
      5 C         139.7240  142.3742  162.3506 C.ar    1  UNL1        0.0337
      6 C         138.5291  143.1765  161.9280 C.ar    1  UNL1        0.1336
      7 O         138.0975  143.1793  160.4914 O.3     1  UNL1       -0.5055
      8 C         137.7658  143.9761  162.9420 C.ar    1  UNL1        0.0366
      9 C         138.1974  143.9734  164.3785 C.ar    1  UNL1        0.0031
     10 C         139.3923  143.1711  164.8011 C.ar    1  UNL1        0.0002
     11 C         139.8239  143.1684  166.2377 C.ar    1  UNL1        0.0000
     12 H         138.5743  142.6798  159.8581 H       1  UNL1        0.2922
     13 O         144.7861  142.6506  170.2277 O.3     1  UNL1       -0.5055
     14 C         143.3341  142.5056  169.8805 C.ar    1  UNL1        0.1337
     15 C         142.3136  142.3580  170.9700 C.ar    1  UNL1        0.0366
     16 C         140.8615  142.2130  170.6229 C.ar    1  UNL1        0.0031
     17 C         140.4299  142.2157  169.1863 C.ar    1  UNL1        0.0002
     18 C         141.4504  142.3634  168.0969 C.ar    1  UNL1        0.0030
     19 C         142.9025  142.5083  168.4440 C.ar    1  UNL1        0.0366
     20 H         145.0557  142.6489  171.1250 H       1  UNL1        0.2922
     21 C         140.4873  141.5747  161.3367 C.ar    1  UNL1        0.0029
     22 C         141.6356  142.1981  160.5999 C.ar    1  UNL1        0.0001
     23 C         142.3988  141.3984  159.5860 C.ar    1  UNL1        0.0000
     24 C         142.0138  139.9755  159.3088 C.ar    1  UNL1        0.0000
     25 C         140.8655  139.3521  160.0455 C.ar    1  UNL1        0.0000
     26 C         140.1022  140.1516  161.0594 C.ar    1  UNL1        0.0001
@<TRIPOS>BOND
     1    13    14    1
     2    14    15   ar
     3    15    16   ar
     4    16    17   ar
     5    17    18   ar
     6    18     1    1
     7     1     2   ar
     8     2     3   ar
     9     3     4   ar
    10     4     5   ar
    11     5    21    1
    12    21    22   ar
    13    22    23   ar
    14    23    24   ar
    15    24    25   ar
    16    25    26   ar
    17     5     6   ar
    18     6     7    1
    19     6     8   ar
    20     8     9   ar
    21     9    10   ar
    22    10    11   ar
    23    18    19   ar
    24    19    14   ar
    25    11     1   ar
    26    10     4   ar
    27    26    21   ar
    28    13    20    1
    29     7    12    1
@<TRIPOS>MOLECULE
*****
 26 29 0 0 0
SMALL
GASTEIGER

@<TRIPOS>ATOM
      1 C         140.4367  141.6983  166.9822 C.ar    1  UNL1        0.0001
      2 C         141.0607  142.7779  166.1485 C.ar    1  UNL1        0.0000
      3 C         140.7225  142.8903  164.6915 C.ar    1  UNL1        0.0001
      4 C         139.7601  141.9232  164.0682 C.ar    1  UNL1        0.0029
      5 C         139.4219  142.0357  162.6111 C.ar    1  UNL1        0.0337
      6 C         138.4595  141.0685  161.9878 C.ar    1  UNL1        0.1336
      7 O         138.1213  141.1810  160.5308 O.3     1  UNL1       -0.5055
      8 C         137.8355  139.9889  162.8215 C.ar    1  UNL1        0.0366
      9 C         138.1738  139.8765  164.2785 C.ar    1  UNL1        0.0031
     10 C         139.1361  140.8436  164.9018 C.ar    1  UNL1        0.0002
     11 C         139.4744  140.7312  166.3588 C.ar    1  UNL1        0.0000
     12 H         138.5111  141.8553  160.0100 H       1  UNL1        0.2922
     13 O         143.0468  143.4005  171.1403 O.3     1  UNL1       -0.5055
     14 C         142.0800  142.4369  170.5183 C.ar    1  UNL1        0.1337
     15 C         141.4515  141.3609  171.3533 C.ar    1  UNL1        0.0366
     16 C         140.4847  140.3974  170.7313 C.ar    1  UNL1        0.0031
     17 C         140.1465  140.5098  169.2742 C.ar    1  UNL1        0.0002
     18 C         140.7750  141.5858  168.4392 C.ar    1  UNL1        0.0030
     19 C         141.7417  142.5494  169.0613 C.ar    1  UNL1        0.0366
     20 H         143.2581  143.3302  172.0505 H       1  UNL1        0.2922
     21 C         140.0459  143.1152  161.7774 C.ar    1  UNL1        0.0029
     22 C         139.4653  144.4983  161.7844 C.ar    1  UNL1        0.0001
     23 C         140.0894  145.5779  160.9507 C.ar    1  UNL1        0.0000
     24 C         141.2941  145.2744  160.1101 C.ar    1  UNL1        0.0000
     25 C         141.8747  143.8914  160.1032 C.ar    1  UNL1        0.0000
     26 C         141.2507  142.8118  160.9368 C.ar    1  UNL1        0.0001
@<TRIPOS>BOND
     1    13    14    1
     2    14    15   ar
     3    15    16   ar
     4    16    17   ar
     5    17    18   ar
     6    18     1    1
     7     1     2   ar
     8     2     3   ar
     9     3     4   ar
    10     4     5   ar
    11     5    21    1
    12    21    22   ar
    13    22    23   ar
    14    23    24   ar
    15    24    25   ar
    16    25    26   ar
    17     5     6   ar
    18     6     7    1
    19     6     8   ar
    20     8     9   ar
    21     9    10   ar
    22    10    11   ar
    23    18    19   ar
    24    19    14   ar
    25    11     1   ar
    26    10     4   ar
    27    26    21   ar
    28    13    20    1
    29     7    12    1
@<TRIPOS>MOLECULE
*****
 26 29 0 0 0
SMALL
GASTEIGER

@<TRIPOS>ATOM
      1 C         141.4719  141.7477  166.6798 C.ar    1  UNL1        0.0001
      2 C         141.2666  140.5052  165.8649 C.ar    1  UNL1        0.0000
      3 C         141.9145  140.3760  164.5182 C.ar    1  UNL1        0.0001
      4 C         142.7677  141.4892  163.9865 C.ar    1  UNL1        0.0029
      5 C         143.4156  141.3600  162.6397 C.ar    1  UNL1        0.0337
      6 C         144.2687  142.4732  162.1080 C.ar    1  UNL1        0.1336
      7 O         144.9166  142.3440  160.7613 O.3     1  UNL1       -0.5055
      8 C         144.4740  143.7157  162.9229 C.ar    1  UNL1        0.0366
      9 C         143.8261  143.8450  164.2696 C.ar    1  UNL1        0.0031
     10 C         142.9729  142.7317  164.8013 C.ar    1  UNL1        0.0002
     11 C         142.3251  142.8609  166.1480 C.ar    1  UNL1        0.0000
     12 H         144.7884  141.5679  160.2523 H       1  UNL1        0.2922
     13 O         139.0045  139.5907  170.7121 O.3     1  UNL1       -0.5055
     14 C         139.5903  140.7984  170.0426 C.ar    1  UNL1        0.1337
     15 C         139.5282  142.1354  170.7199 C.ar    1  UNL1        0.0366
     16 C         140.1140  143.3432  170.0504 C.ar    1  UNL1        0.0031
     17 C         140.7619  143.2139  168.7037 C.ar    1  UNL1        0.0002
     18 C         140.8240  141.8769  168.0265 C.ar    1  UNL1        0.0030
     19 C         140.2382  140.6692  168.6960 C.ar    1  UNL1        0.0366
     20 H         138.5998  139.6714  171.5533 H       1  UNL1        0.2922
     21 C         143.2103  140.1175  161.8249 C.ar    1  UNL1        0.0029
     22 C         144.1001  138.9281  162.0337 C.ar    1  UNL1        0.0001
     23 C         143.8947  137.6856  161.2187 C.ar    1  UNL1        0.0000
     24 C         142.7997  137.6325  160.1951 C.ar    1  UNL1        0.0000
     25 C         141.9099  138.8219  159.9862 C.ar    1  UNL1        0.0000
     26 C         142.1152  140.0644  160.8011 C.ar    1  UNL1        0.0001
@<TRIPOS>BOND
     1    13    14    1
     2    14    15   ar
     3    15    16   ar
     4    16    17   ar
     5    17    18   ar
     6    18     1    1
     7     1     2   ar
     8     2     3   ar
     9     3     4   ar
    10     4     5   ar
    11     5    21    1
    12    21    22   ar
    13    22    23   ar
    14    23    24   ar
    15    24    25   ar
    16    25    26   ar
    17     5     6   ar
    18     6     7    1
    19     6     8   ar
    20     8     9   ar
    21     9    10   ar
    22    10    11   ar
    23    18    19   ar
    24    19    14   ar
    25    11     1   ar
    26    10     4   ar
    27    26    21   ar
    28    13    20    1
    29     7    12    1
@<TRIPOS>MOLECULE
*****
 26 29 0 0 0
SMALL
GASTEIGER

@<TRIPOS>ATOM
      1 C         141.8569  141.6118  166.8802 C.ar    1  UNL1        0.0001
      2 C         140.8051  141.0727  165.9565 C.ar    1  UNL1        0.0000
      3 C         140.7826  141.4953  164.5175 C.ar    1  UNL1        0.0001
      4 C         141.8119  142.4570  164.0021 C.ar    1  UNL1        0.0029
      5 C         141.7894  142.8796  162.5630 C.ar    1  UNL1        0.0337
      6 C         142.8187  143.8414  162.0476 C.ar    1  UNL1        0.1336
      7 O         142.7962  144.2640  160.6085 O.3     1  UNL1       -0.5055
      8 C         143.8704  144.3805  162.9713 C.ar    1  UNL1        0.0366
      9 C         143.8929  143.9579  164.4103 C.ar    1  UNL1        0.0031
     10 C         142.8637  142.9962  164.9257 C.ar    1  UNL1        0.0002
     11 C         142.8861  142.5736  166.3647 C.ar    1  UNL1        0.0000
     12 H         142.1392  143.9272  160.0316 H       1  UNL1        0.2922
     13 O         140.4657  142.4007  171.8241 O.3     1  UNL1       -0.5055
     14 C         141.1838  141.5837  170.7912 C.ar    1  UNL1        0.1337
     15 C         141.9244  140.3441  171.1974 C.ar    1  UNL1        0.0366
     16 C         142.6425  139.5271  170.1646 C.ar    1  UNL1        0.0031
     17 C         142.6200  139.9497  168.7254 C.ar    1  UNL1        0.0002
     18 C         141.8794  141.1892  168.3193 C.ar    1  UNL1        0.0030
     19 C         141.1613  142.0062  169.3522 C.ar    1  UNL1        0.0366
     20 H         140.4798  142.1367  172.7230 H       1  UNL1        0.2922
     21 C         140.7376  142.3405  161.6394 C.ar    1  UNL1        0.0029
     22 C         140.9965  141.0859  160.8589 C.ar    1  UNL1        0.0001
     23 C         139.9446  140.5468  159.9353 C.ar    1  UNL1        0.0000
     24 C         138.6341  141.2622  159.7921 C.ar    1  UNL1        0.0000
     25 C         138.3752  142.5168  160.5726 C.ar    1  UNL1        0.0000
     26 C         139.4270  143.0559  161.4962 C.ar    1  UNL1        0.0001
@<TRIPOS>BOND
     1    13    14    1
     2    14    15   ar
     3    15    16   ar
     4    16    17   ar
     5    17    18   ar
     6    18     1    1
     7     1     2   ar
     8     2     3   ar
     9     3     4   ar
    10     4     5   ar
    11     5    21    1
    12    21    22   ar
    13    22    23   ar
    14    23    24   ar
    15    24    25   ar
    16    25    26   ar
    17     5     6   ar
    18     6     7    1
    19     6     8   ar
    20     8     9   ar
    21     9    10   ar
    22    10    11   ar
    23    18    19   ar
    24    19    14   ar
    25    11     1   ar
    26    10     4   ar
    27    26    21   ar
    28    13    20    1
    29     7    12    1
@<TRIPOS>MOLECULE
*****
 26 29 0 0 0
SMALL
GASTEIGER

@<TRIPOS>ATOM
      1 C         141.3543  141.5357  166.4212 C.ar    1  UNL1        0.0001
      2 C         141.0967  142.4340  165.2480 C.ar    1  UNL1        0.0000
      3 C         140.7816  141.8431  163.9059 C.ar    1  UNL1        0.0001
      4 C         140.7240  140.3537  163.7370 C.ar    1  UNL1        0.0029
      5 C         140.4088  139.7628  162.3947 C.ar    1  UNL1        0.0337
      6 C         140.3512  138.2734  162.2258 C.ar    1  UNL1        0.1336
      7 O         140.0361  137.6825  160.8837 O.3     1  UNL1       -0.5055
      8 C         140.6088  137.3750  163.3991 C.ar    1  UNL1        0.0366
      9 C         140.9239  137.9660  164.7413 C.ar    1  UNL1        0.0031
     10 C         140.9815  139.4553  164.9102 C.ar    1  UNL1        0.0002
     11 C         141.2967  140.0463  166.2523 C.ar    1  UNL1        0.0000
     12 H         139.8752  138.2437  160.1507 H       1  UNL1        0.2922
     13 O         139.9361  144.3840  170.5292 O.3     1  UNL1       -0.5055
     14 C         140.9603  143.5508  169.8174 C.ar    1  UNL1        0.1337
     15 C         142.2997  143.3085  170.4479 C.ar    1  UNL1        0.0366
     16 C         143.3239  142.4752  169.7361 C.ar    1  UNL1        0.0031
     17 C         143.0088  141.8843  168.3939 C.ar    1  UNL1        0.0002
     18 C         141.6694  142.1266  167.7635 C.ar    1  UNL1        0.0030
     19 C         140.6452  142.9599  168.4753 C.ar    1  UNL1        0.0366
     20 H         140.1329  144.7532  171.3676 H       1  UNL1        0.2922
     21 C         140.1513  140.6612  161.2215 C.ar    1  UNL1        0.0029
     22 C         138.7658  141.1720  160.9579 C.ar    1  UNL1        0.0001
     23 C         138.5083  142.0704  159.7845 C.ar    1  UNL1        0.0000
     24 C         139.6363  142.4580  158.8749 C.ar    1  UNL1        0.0000
     25 C         141.0218  141.9472  159.1385 C.ar    1  UNL1        0.0000
     26 C         141.2793  141.0488  160.3118 C.ar    1  UNL1        0.0001
@<TRIPOS>BOND
     1    13    14    1
     2    14    15   ar
     3    15    16   ar
     4    16    17   ar
     5    17    18   ar
     6    18     1    1
     7     1     2   ar
     8     2     3   ar
     9     3     4   ar
    10     4     5   ar
    11     5    21    1
    12    21    22   ar
    13    22    23   ar
    14    23    24   ar
    15    24    25   ar
    16    25    26   ar
    17     5     6   ar
    18     6     7    1
    19     6     8   ar
    20     8     9   ar
    21     9    10   ar
    22    10    11   ar
    23    18    19   ar
    24    19    14   ar
    25    11     1   ar
    26    10     4   ar
    27    26    21   ar
    28    13    20    1
    29     7    12    1
