@<TRIPOS>MOLECULE
*****
 27 29 0 0 0
SMALL
GASTEIGER

@<TRIPOS>ATOM
      1 C         139.1729  138.4686  160.8105 C.3     1  UNL1        0.1781
      2 C         139.9521  138.4582  159.5289 C.2     1  UNL1        0.3334
      3 O         139.2371  138.5750  158.2154 O.2     1  UNL1       -0.2485
      4 C         142.2979  139.5467  159.7781 C.3     1  UNL1        0.2556
      5 O         141.4463  138.3311  159.5607 O.3     1  UNL1       -0.4434
      6 N         139.6052  137.6048  161.9581 N.3     1  UNL1       -0.1696
      7 H         140.5620  137.3110  161.7614 H       1  UNL1        0.1494
      8 S         139.5993  138.1539  163.3540 S.O2    1  UNL1        0.0607
      9 O         138.4915  137.2111  163.7200 O.2     1  UNL1       -0.1530
     10 O         140.7070  139.0967  162.9880 O.2     1  UNL1       -0.1530
     11 C         139.5933  138.7028  164.7499 C.ar    1  UNL1        0.1220
     12 C         138.3987  138.4940  165.6328 C.ar    1  UNL1        0.0204
     13 C         138.3928  139.0430  167.0288 C.ar    1  UNL1        0.0081
     14 C         139.5813  139.8009  167.5418 C.ar    1  UNL1        0.0346
     15 BR        139.5753  140.3499  168.9377 Br      1  UNL1       -0.0490
     16 C         140.7758  140.0097  166.6587 C.ar    1  UNL1        0.0081
     17 C         140.7817  139.4607  165.2629 C.ar    1  UNL1        0.0204
     18 C         137.9612  139.3427  160.9446 C.3     1  UNL1        0.0567
     19 C         138.1113  140.8351  160.9623 C.2     1  UNL1        0.0000
     20 C         138.3843  141.7079  159.7733 C.2     1  UNL1        0.0942
     21 N         138.4565  143.1289  160.2482 N.2     1  UNL1       -0.2482
     22 C         138.2282  143.1343  161.7308 C.2     1  UNL1        0.0631
     23 C         138.1870  144.2469  162.7359 C.3     1  UNL1        0.0717
     24 C         137.9325  143.9419  164.1823 C.2     1  UNL1       -0.0198
     25 C         137.7192  142.5243  164.6236 C.2     1  UNL1       -0.0042
     26 C         137.7604  141.4116  163.6185 C.2     1  UNL1        0.0006
     27 C         138.0149  141.7167  162.1721 C.2     1  UNL1        0.0115
@<TRIPOS>BOND
     1     4     5    1
     2     5     2    1
     3     2     3    2
     4     2     1    1
     5     1    18    1
     6    18    19    1
     7    19    20    2
     8    20    21    1
     9    21    22    2
    10    22    23    1
    11    23    24    1
    12    24    25    2
    13    25    26    1
    14    26    27    2
    15     1     6    1
    16     6     8    1
    17     8     9    2
    18     8    10    2
    19     8    11    1
    20    11    12   ar
    21    12    13   ar
    22    13    14   ar
    23    14    15    1
    24    14    16   ar
    25    16    17   ar
    26    27    19    1
    27    17    11   ar
    28    27    22    1
    29     6     7    1
@<TRIPOS>MOLECULE
*****
 27 29 0 0 0
SMALL
GASTEIGER

@<TRIPOS>ATOM
      1 C         138.9990  138.6781  163.1237 C.3     1  UNL1        0.1781
      2 C         139.7552  137.8300  162.1445 C.2     1  UNL1        0.3334
      3 O         139.2426  137.6626  160.7448 O.2     1  UNL1       -0.2485
      4 C         142.3481  137.8045  162.3051 C.3     1  UNL1        0.2556
      5 O         141.0240  137.1494  162.5651 O.3     1  UNL1       -0.4434
      6 N         138.8908  138.2523  164.5579 N.3     1  UNL1       -0.1696
      7 H         139.4866  137.4316  164.6671 H       1  UNL1        0.1494
      8 S         139.2630  139.2064  165.6538 S.O2    1  UNL1        0.0607
      9 O         140.6971  139.1474  165.2180 O.2     1  UNL1       -0.1530
     10 O         137.8289  139.2655  166.0896 O.2     1  UNL1       -0.1530
     11 C         139.6353  140.1606  166.7497 C.ar    1  UNL1        0.1220
     12 C         140.4228  141.3971  166.4321 C.ar    1  UNL1        0.0204
     13 C         140.7950  142.3513  167.5281 C.ar    1  UNL1        0.0081
     14 C         140.3798  142.0690  168.9415 C.ar    1  UNL1        0.0346
     15 BR        140.7521  143.0232  170.0374 Br      1  UNL1       -0.0490
     16 C         139.5923  140.8324  169.2590 C.ar    1  UNL1        0.0081
     17 C         139.2201  139.8783  168.1631 C.ar    1  UNL1        0.0204
     18 C         138.3509  139.9522  162.6687 C.3     1  UNL1        0.0567
     19 C         139.1383  141.2288  162.6492 C.2     1  UNL1        0.0000
     20 C         140.3339  141.5142  161.7895 C.2     1  UNL1        0.0942
     21 N         140.8028  142.9059  162.0949 N.2     1  UNL1       -0.2482
     22 C         139.8970  143.4806  163.1434 C.2     1  UNL1        0.0631
     23 C         139.8761  144.8138  163.8304 C.3     1  UNL1        0.0717
     24 C         138.8264  145.1105  164.8600 C.2     1  UNL1       -0.0198
     25 C         137.7977  144.0740  165.2026 C.2     1  UNL1       -0.0042
     26 C         137.8186  142.7408  164.5155 C.2     1  UNL1        0.0006
     27 C         138.8683  142.4441  163.4860 C.2     1  UNL1        0.0115
@<TRIPOS>BOND
     1     4     5    1
     2     5     2    1
     3     2     3    2
     4     2     1    1
     5     1    18    1
     6    18    19    1
     7    19    20    2
     8    20    21    1
     9    21    22    2
    10    22    23    1
    11    23    24    1
    12    24    25    2
    13    25    26    1
    14    26    27    2
    15     1     6    1
    16     6     8    1
    17     8     9    2
    18     8    10    2
    19     8    11    1
    20    11    12   ar
    21    12    13   ar
    22    13    14   ar
    23    14    15    1
    24    14    16   ar
    25    16    17   ar
    26    27    19    1
    27    17    11   ar
    28    27    22    1
    29     6     7    1
@<TRIPOS>MOLECULE
*****
 27 29 0 0 0
SMALL
GASTEIGER

@<TRIPOS>ATOM
      1 C         138.3601  139.6976  163.6089 C.3     1  UNL1        0.1781
      2 C         137.6477  140.2613  162.4153 C.2     1  UNL1        0.3334
      3 O         137.4925  139.4332  161.1743 O.2     1  UNL1       -0.2485
      4 C         137.9295  142.8126  162.0136 C.3     1  UNL1        0.2556
      5 O         137.0904  141.6532  162.4628 O.3     1  UNL1       -0.4434
      6 N         138.0275  140.1944  164.9846 N.3     1  UNL1       -0.1696
      7 H         137.5012  139.4527  165.4462 H       1  UNL1        0.1494
      8 S         139.1266  140.5944  165.9236 S.O2    1  UNL1        0.0607
      9 O         138.7933  139.4306  166.8093 O.2     1  UNL1       -0.1530
     10 O         139.4600  141.7582  165.0379 O.2     1  UNL1       -0.1530
     11 C         140.2258  140.9943  166.8628 C.ar    1  UNL1        0.1220
     12 C         140.1625  140.5913  168.3063 C.ar    1  UNL1        0.0204
     13 C         141.2617  140.9913  169.2454 C.ar    1  UNL1        0.0081
     14 C         142.4241  141.7941  168.7411 C.ar    1  UNL1        0.0346
     15 BR        143.5232  142.1940  169.6802 Br      1  UNL1       -0.0490
     16 C         142.4872  142.1971  167.2975 C.ar    1  UNL1        0.0081
     17 C         141.3881  141.7972  166.3585 C.ar    1  UNL1        0.0204
     18 C         139.4052  138.6370  163.4267 C.3     1  UNL1        0.0567
     19 C         140.8167  139.0236  163.0980 C.2     1  UNL1        0.0000
     20 C         141.2906  139.6127  161.8025 C.2     1  UNL1        0.0942
     21 N         142.7690  139.8421  161.9110 N.2     1  UNL1       -0.2482
     22 C         143.2088  139.3948  163.2735 C.2     1  UNL1        0.0631
     23 C         144.5520  139.3829  163.9409 C.3     1  UNL1        0.0717
     24 C         144.6887  138.8650  165.3420 C.2     1  UNL1       -0.0198
     25 C         143.4821  138.3591  166.0757 C.2     1  UNL1       -0.0042
     26 C         142.1389  138.3711  165.4083 C.2     1  UNL1        0.0006
     27 C         142.0022  138.8890  164.0072 C.2     1  UNL1        0.0115
@<TRIPOS>BOND
     1     4     5    1
     2     5     2    1
     3     2     3    2
     4     2     1    1
     5     1    18    1
     6    18    19    1
     7    19    20    2
     8    20    21    1
     9    21    22    2
    10    22    23    1
    11    23    24    1
    12    24    25    2
    13    25    26    1
    14    26    27    2
    15     1     6    1
    16     6     8    1
    17     8     9    2
    18     8    10    2
    19     8    11    1
    20    11    12   ar
    21    12    13   ar
    22    13    14   ar
    23    14    15    1
    24    14    16   ar
    25    16    17   ar
    26    27    19    1
    27    17    11   ar
    28    27    22    1
    29     6     7    1
@<TRIPOS>MOLECULE
*****
 27 29 0 0 0
SMALL
GASTEIGER

@<TRIPOS>ATOM
      1 C         141.6663  142.7236  168.7009 C.3     1  UNL1        0.1781
      2 C         141.5077  143.2358  170.1018 C.2     1  UNL1        0.3334
      3 O         140.8662  144.5698  170.3446 O.2     1  UNL1       -0.2485
      4 C         141.9645  140.9163  171.1794 C.3     1  UNL1        0.2556
      5 O         141.9908  142.4140  171.2599 O.3     1  UNL1       -0.4434
      6 N         143.0210  142.3207  168.1985 N.3     1  UNL1       -0.1696
      7 H         143.4680  141.7928  168.9480 H       1  UNL1        0.1494
      8 S         143.1436  141.4933  166.9534 S.O2    1  UNL1        0.0607
      9 O         143.3928  142.7365  166.1519 O.2     1  UNL1       -0.1530
     10 O         142.8943  140.2501  167.7548 O.2     1  UNL1       -0.1530
     11 C         143.2662  140.6660  165.7082 C.ar    1  UNL1        0.1220
     12 C         142.7410  139.2611  165.6865 C.ar    1  UNL1        0.0204
     13 C         142.8637  138.4338  164.4412 C.ar    1  UNL1        0.0081
     14 C         143.5115  139.0113  163.2177 C.ar    1  UNL1        0.0346
     15 BR        143.6341  138.1840  161.9726 Br      1  UNL1       -0.0490
     16 C         144.0366  140.4163  163.2396 C.ar    1  UNL1        0.0081
     17 C         143.9139  141.2435  164.4848 C.ar    1  UNL1        0.0204
     18 C         140.4700  142.6144  167.8024 C.3     1  UNL1        0.0567
     19 C         139.8077  141.2848  167.5938 C.2     1  UNL1        0.0000
     20 C         139.3263  140.3606  168.6728 C.2     1  UNL1        0.0942
     21 N         138.7315  139.1507  168.0154 N.2     1  UNL1       -0.2482
     22 C         138.8452  139.3271  166.5301 C.2     1  UNL1        0.0631
     23 C         138.4291  138.4570  165.3813 C.3     1  UNL1        0.0717
     24 C         138.6781  138.9060  163.9719 C.2     1  UNL1       -0.0198
     25 C         139.3432  140.2250  163.7114 C.2     1  UNL1       -0.0042
     26 C         139.7593  141.0950  164.8602 C.2     1  UNL1        0.0006
     27 C         139.5103  140.6461  166.2696 C.2     1  UNL1        0.0115
@<TRIPOS>BOND
     1     4     5    1
     2     5     2    1
     3     2     3    2
     4     2     1    1
     5     1    18    1
     6    18    19    1
     7    19    20    2
     8    20    21    1
     9    21    22    2
    10    22    23    1
    11    23    24    1
    12    24    25    2
    13    25    26    1
    14    26    27    2
    15     1     6    1
    16     6     8    1
    17     8     9    2
    18     8    10    2
    19     8    11    1
    20    11    12   ar
    21    12    13   ar
    22    13    14   ar
    23    14    15    1
    24    14    16   ar
    25    16    17   ar
    26    27    19    1
    27    17    11   ar
    28    27    22    1
    29     6     7    1
@<TRIPOS>MOLECULE
*****
 27 29 0 0 0
SMALL
GASTEIGER

@<TRIPOS>ATOM
      1 C         142.5555  140.2035  168.6262 C.3     1  UNL1        0.1781
      2 C         141.5989  140.1742  169.7813 C.2     1  UNL1        0.3334
      3 O         142.0331  140.6732  171.1275 O.2     1  UNL1       -0.2485
      4 C         139.0263  140.5056  169.9273 C.3     1  UNL1        0.2556
      5 O         140.2082  139.6458  169.5899 O.3     1  UNL1       -0.4434
      6 N         143.0319  138.9197  168.0141 N.3     1  UNL1       -0.1696
      7 H         142.4774  138.1715  168.4303 H       1  UNL1        0.1494
      8 S         142.9699  138.7291  166.5276 S.O2    1  UNL1        0.0607
      9 O         141.5095  139.0710  166.5448 O.2     1  UNL1       -0.1530
     10 O         144.4302  138.3872  166.5104 O.2     1  UNL1       -0.1530
     11 C         142.9077  138.5385  165.0411 C.ar    1  UNL1        0.1220
     12 C         141.7538  137.8027  164.4268 C.ar    1  UNL1        0.0204
     13 C         141.6918  137.6122  162.9402 C.ar    1  UNL1        0.0081
     14 C         142.7835  138.1574  162.0679 C.ar    1  UNL1        0.0346
     15 BR        142.7213  137.9669  160.5814 Br      1  UNL1       -0.0490
     16 C         143.9373  138.8932  162.6822 C.ar    1  UNL1        0.0081
     17 C         143.9994  139.0837  164.1688 C.ar    1  UNL1        0.0204
     18 C         143.0358  141.5169  168.0833 C.3     1  UNL1        0.0567
     19 C         142.2492  142.2205  167.0173 C.2     1  UNL1        0.0000
     20 C         140.7941  142.5780  167.0863 C.2     1  UNL1        0.0942
     21 N         140.4253  143.2685  165.8068 N.2     1  UNL1       -0.2482
     22 C         141.6525  143.3377  164.9470 C.2     1  UNL1        0.0631
     23 C         141.8892  143.9069  163.5795 C.3     1  UNL1        0.0717
     24 C         143.2531  143.8283  162.9602 C.2     1  UNL1       -0.0198
     25 C         144.3803  143.1806  163.7084 C.2     1  UNL1       -0.0042
     26 C         144.1437  142.6114  165.0759 C.2     1  UNL1        0.0006
     27 C         142.7798  142.6900  165.6952 C.2     1  UNL1        0.0115
@<TRIPOS>BOND
     1     4     5    1
     2     5     2    1
     3     2     3    2
     4     2     1    1
     5     1    18    1
     6    18    19    1
     7    19    20    2
     8    20    21    1
     9    21    22    2
    10    22    23    1
    11    23    24    1
    12    24    25    2
    13    25    26    1
    14    26    27    2
    15     1     6    1
    16     6     8    1
    17     8     9    2
    18     8    10    2
    19     8    11    1
    20    11    12   ar
    21    12    13   ar
    22    13    14   ar
    23    14    15    1
    24    14    16   ar
    25    16    17   ar
    26    27    19    1
    27    17    11   ar
    28    27    22    1
    29     6     7    1
@<TRIPOS>MOLECULE
*****
 27 29 0 0 0
SMALL
GASTEIGER

@<TRIPOS>ATOM
      1 C         143.1095  140.0581  162.8654 C.3     1  UNL1        0.1781
      2 C         144.2598  140.2408  161.9202 C.2     1  UNL1        0.3334
      3 O         144.4017  139.3408  160.7287 O.2     1  UNL1       -0.2485
      4 C         145.8007  141.5517  163.5502 C.3     1  UNL1        0.2556
      5 O         145.2682  141.3236  162.1666 O.3     1  UNL1       -0.4434
      6 N         143.2620  139.1791  164.0712 N.3     1  UNL1       -0.1696
      7 H         144.2319  139.2625  164.3757 H       1  UNL1        0.1494
      8 S         142.4067  139.4110  165.2815 S.O2    1  UNL1        0.0607
      9 O         143.3199  140.5194  165.7143 O.2     1  UNL1       -0.1530
     10 O         141.4935  138.3025  164.8487 O.2     1  UNL1       -0.1530
     11 C         141.5515  139.6430  166.4917 C.ar    1  UNL1        0.1220
     12 C         140.0576  139.6738  166.3598 C.ar    1  UNL1        0.0204
     13 C         139.2025  139.9058  167.5702 C.ar    1  UNL1        0.0081
     14 C         139.8412  140.1070  168.9124 C.ar    1  UNL1        0.0346
     15 BR        138.9860  140.3390  170.1227 Br      1  UNL1       -0.0490
     16 C         141.3351  140.0762  169.0443 C.ar    1  UNL1        0.0081
     17 C         142.1902  139.8442  167.8340 C.ar    1  UNL1        0.0204
     18 C         141.8067  140.7545  162.6048 C.3     1  UNL1        0.0567
     19 C         141.5412  142.1004  163.2114 C.2     1  UNL1        0.0000
     20 C         142.5562  143.1814  163.4372 C.2     1  UNL1        0.0942
     21 N         141.8564  144.3507  164.0640 N.2     1  UNL1       -0.2482
     22 C         140.4088  143.9924  164.2256 C.2     1  UNL1        0.0631
     23 C         139.2429  144.7528  164.7845 C.3     1  UNL1        0.0717
     24 C         137.8822  144.1224  164.8164 C.2     1  UNL1       -0.0198
     25 C         137.6874  142.7316  164.2894 C.2     1  UNL1       -0.0042
     26 C         138.8533  141.9712  163.7305 C.2     1  UNL1        0.0006
     27 C         140.2140  142.6016  163.6986 C.2     1  UNL1        0.0115
@<TRIPOS>BOND
     1     4     5    1
     2     5     2    1
     3     2     3    2
     4     2     1    1
     5     1    18    1
     6    18    19    1
     7    19    20    2
     8    20    21    1
     9    21    22    2
    10    22    23    1
    11    23    24    1
    12    24    25    2
    13    25    26    1
    14    26    27    2
    15     1     6    1
    16     6     8    1
    17     8     9    2
    18     8    10    2
    19     8    11    1
    20    11    12   ar
    21    12    13   ar
    22    13    14   ar
    23    14    15    1
    24    14    16   ar
    25    16    17   ar
    26    27    19    1
    27    17    11   ar
    28    27    22    1
    29     6     7    1
@<TRIPOS>MOLECULE
*****
 27 29 0 0 0
SMALL
GASTEIGER

@<TRIPOS>ATOM
      1 C         139.3202  143.4771  163.1003 C.3     1  UNL1        0.1781
      2 C         139.4943  144.0190  161.7124 C.2     1  UNL1        0.3334
      3 O         138.6072  143.5380  160.6027 O.2     1  UNL1       -0.2485
      4 C         141.0432  145.2546  160.0320 C.3     1  UNL1        0.2556
      5 O         140.5555  145.0420  161.4345 O.3     1  UNL1       -0.4434
      6 N         140.1981  143.9685  164.2129 N.3     1  UNL1       -0.1696
      7 H         139.7008  144.7369  164.6629 H       1  UNL1        0.1494
      8 S         140.6229  143.0301  165.3033 S.O2    1  UNL1        0.0607
      9 O         139.6542  143.6842  166.2434 O.2     1  UNL1       -0.1530
     10 O         141.5916  142.3761  164.3632 O.2     1  UNL1       -0.1530
     11 C         141.0476  142.0918  166.3938 C.ar    1  UNL1        0.1220
     12 C         141.7415  140.8072  166.0498 C.ar    1  UNL1        0.0204
     13 C         142.1662  139.8689  167.1404 C.ar    1  UNL1        0.0081
     14 C         141.8971  140.2153  168.5748 C.ar    1  UNL1        0.0346
     15 BR        142.3218  139.2770  169.6653 Br      1  UNL1       -0.0490
     16 C         141.2032  141.4999  168.9187 C.ar    1  UNL1        0.0081
     17 C         140.7785  142.4381  167.8282 C.ar    1  UNL1        0.0204
     18 C         138.2682  142.4438  163.3755 C.3     1  UNL1        0.0567
     19 C         138.5888  140.9869  163.2188 C.2     1  UNL1        0.0000
     20 C         139.0571  140.3175  161.9608 C.2     1  UNL1        0.0942
     21 N         139.2551  138.8605  162.2572 N.2     1  UNL1       -0.2482
     22 C         138.9092  138.6294  163.6984 C.2     1  UNL1        0.0631
     23 C         138.9160  137.3921  164.5463 C.3     1  UNL1        0.0717
     24 C         138.5110  137.4690  165.9885 C.2     1  UNL1       -0.0198
     25 C         138.0992  138.7832  166.5828 C.2     1  UNL1       -0.0042
     26 C         138.0924  140.0205  165.7349 C.2     1  UNL1        0.0006
     27 C         138.4974  139.9436  164.2927 C.2     1  UNL1        0.0115
@<TRIPOS>BOND
     1     4     5    1
     2     5     2    1
     3     2     3    2
     4     2     1    1
     5     1    18    1
     6    18    19    1
     7    19    20    2
     8    20    21    1
     9    21    22    2
    10    22    23    1
    11    23    24    1
    12    24    25    2
    13    25    26    1
    14    26    27    2
    15     1     6    1
    16     6     8    1
    17     8     9    2
    18     8    10    2
    19     8    11    1
    20    11    12   ar
    21    12    13   ar
    22    13    14   ar
    23    14    15    1
    24    14    16   ar
    25    16    17   ar
    26    27    19    1
    27    17    11   ar
    28    27    22    1
    29     6     7    1
@<TRIPOS>MOLECULE
*****
 27 29 0 0 0
SMALL
GASTEIGER

@<TRIPOS>ATOM
      1 C         139.1202  143.8391  162.8424 C.3     1  UNL1        0.1781
      2 C         139.1748  144.6736  161.5971 C.2     1  UNL1        0.3334
      3 O         139.1601  146.1702  161.6959 O.2     1  UNL1       -0.2485
      4 C         140.5757  143.6686  159.6536 C.3     1  UNL1        0.2556
      5 O         139.2440  144.0113  160.2531 O.3     1  UNL1       -0.4434
      6 N         140.1608  144.0137  163.9085 N.3     1  UNL1       -0.1696
      7 H         139.7000  144.4653  164.6985 H       1  UNL1        0.1494
      8 S         140.8834  142.8180  164.4543 S.O2    1  UNL1        0.0607
      9 O         141.4866  142.5663  163.1042 O.2     1  UNL1       -0.1530
     10 O         140.2802  143.0697  165.8044 O.2     1  UNL1       -0.1530
     11 C         141.6060  141.6222  165.0001 C.ar    1  UNL1        0.1220
     12 C         141.9411  141.5504  166.4605 C.ar    1  UNL1        0.0204
     13 C         142.6638  140.3546  167.0062 C.ar    1  UNL1        0.0081
     14 C         143.0513  139.2306  166.0916 C.ar    1  UNL1        0.0346
     15 BR        143.7740  138.0348  166.6374 Br      1  UNL1       -0.0490
     16 C         142.7162  139.3024  164.6312 C.ar    1  UNL1        0.0081
     17 C         141.9936  140.4982  164.0856 C.ar    1  UNL1        0.0204
     18 C         138.0248  142.8300  163.0216 C.3     1  UNL1        0.0567
     19 C         138.2790  141.3843  162.7124 C.2     1  UNL1        0.0000
     20 C         138.4648  140.7944  161.3459 C.2     1  UNL1        0.0942
     21 N         138.6926  139.3203  161.5045 N.2     1  UNL1       -0.2482
     22 C         138.6476  138.9992  162.9690 C.2     1  UNL1        0.0631
     23 C         138.8063  137.7101  163.7192 C.3     1  UNL1        0.0717
     24 C         138.7094  137.6966  165.2160 C.2     1  UNL1       -0.0198
     25 C         138.4537  138.9722  165.9626 C.2     1  UNL1       -0.0042
     26 C         138.2950  140.2614  165.2124 C.2     1  UNL1        0.0006
     27 C         138.3919  140.2749  163.7156 C.2     1  UNL1        0.0115
@<TRIPOS>BOND
     1     4     5    1
     2     5     2    1
     3     2     3    2
     4     2     1    1
     5     1    18    1
     6    18    19    1
     7    19    20    2
     8    20    21    1
     9    21    22    2
    10    22    23    1
    11    23    24    1
    12    24    25    2
    13    25    26    1
    14    26    27    2
    15     1     6    1
    16     6     8    1
    17     8     9    2
    18     8    10    2
    19     8    11    1
    20    11    12   ar
    21    12    13   ar
    22    13    14   ar
    23    14    15    1
    24    14    16   ar
    25    16    17   ar
    26    27    19    1
    27    17    11   ar
    28    27    22    1
    29     6     7    1
@<TRIPOS>MOLECULE
*****
 27 29 0 0 0
SMALL
GASTEIGER

@<TRIPOS>ATOM
      1 C         141.9814  140.1643  167.8223 C.3     1  UNL1        0.1781
      2 C         141.9164  139.5217  169.1761 C.2     1  UNL1        0.3334
      3 O         142.9932  138.5706  169.6073 O.2     1  UNL1       -0.2485
      4 C         140.8314  141.0399  170.9836 C.3     1  UNL1        0.2556
      5 O         140.7746  139.8302  170.0986 O.3     1  UNL1       -0.4434
      6 N         142.4204  141.5925  167.6903 N.3     1  UNL1       -0.1696
      7 H         143.4365  141.5812  167.6014 H       1  UNL1        0.1494
      8 S         141.8969  142.4374  166.5669 S.O2    1  UNL1        0.0607
      9 O         140.6142  142.6404  167.3175 O.2     1  UNL1       -0.1530
     10 O         143.1796  142.2343  165.8163 O.2     1  UNL1       -0.1530
     11 C         141.3732  143.2822  165.4435 C.ar    1  UNL1        0.1220
     12 C         139.9202  143.6518  165.3973 C.ar    1  UNL1        0.0204
     13 C         139.3966  144.4967  164.2739 C.ar    1  UNL1        0.0081
     14 C         140.3260  144.9720  163.1967 C.ar    1  UNL1        0.0346
     15 BR        139.8023  145.8169  162.0733 Br      1  UNL1       -0.0490
     16 C         141.7790  144.6024  163.2430 C.ar    1  UNL1        0.0081
     17 C         142.3026  143.7576  164.3664 C.ar    1  UNL1        0.0204
     18 C         141.6074  139.3786  166.6004 C.3     1  UNL1        0.0567
     19 C         140.2306  139.5065  166.0189 C.2     1  UNL1        0.0000
     20 C         138.9443  139.1802  166.7182 C.2     1  UNL1        0.0942
     21 N         137.8172  139.4551  165.7675 N.2     1  UNL1       -0.2482
     22 C         138.4068  139.9513  164.4806 C.2     1  UNL1        0.0631
     23 C         137.7782  140.3784  163.1874 C.3     1  UNL1        0.0717
     24 C         138.6411  140.8372  162.0495 C.2     1  UNL1       -0.0198
     25 C         140.1327  140.8689  162.2049 C.2     1  UNL1       -0.0042
     26 C         140.7614  140.4419  163.4981 C.2     1  UNL1        0.0006
     27 C         139.8984  139.9831  164.6359 C.2     1  UNL1        0.0115
@<TRIPOS>BOND
     1     4     5    1
     2     5     2    1
     3     2     3    2
     4     2     1    1
     5     1    18    1
     6    18    19    1
     7    19    20    2
     8    20    21    1
     9    21    22    2
    10    22    23    1
    11    23    24    1
    12    24    25    2
    13    25    26    1
    14    26    27    2
    15     1     6    1
    16     6     8    1
    17     8     9    2
    18     8    10    2
    19     8    11    1
    20    11    12   ar
    21    12    13   ar
    22    13    14   ar
    23    14    15    1
    24    14    16   ar
    25    16    17   ar
    26    27    19    1
    27    17    11   ar
    28    27    22    1
    29     6     7    1
