@<TRIPOS>MOLECULE
*****
 33 37 0 0 0
SMALL
GASTEIGER

@<TRIPOS>ATOM
      1 O         143.2656  140.4094  157.0710 O.2     1  UNL1       -0.2647
      2 C         142.9988  139.1539  157.8472 C.2     1  UNL1        0.3045
      3 N         143.2958  139.1032  159.3167 N.am    1  UNL1       -0.2720
      4 C         143.0289  137.8476  160.0929 C.3     1  UNL1        0.0976
      5 C         143.3259  137.7969  161.5622 C.3     1  UNL1        0.0651
      6 C         143.8897  139.0017  162.2555 C.3     1  UNL1        0.1693
      7 C         144.1566  140.2573  161.4793 C.3     1  UNL1        0.0651
      8 C         143.8596  140.3080  160.0099 C.3     1  UNL1        0.0976
      9 C         142.4349  137.9492  157.1540 C.ar    1  UNL1        0.3042
     10 N         140.9969  137.7378  156.7831 N.ar    1  UNL1       -0.1021
     11 N         140.8833  136.4022  156.1098 N.ar    1  UNL1       -0.1067
     12 C         142.2511  135.7881  156.0646 C.ar    1  UNL1        0.2509
     13 O         143.2100  136.7442  156.7099 O.2     1  UNL1       -0.4122
     14 C         142.5989  134.4524  155.4772 C.ar    1  UNL1        0.0657
     15 C         142.1242  134.0919  154.1007 C.ar    1  UNL1        0.0056
     16 C         142.4721  132.7562  153.5134 C.ar    1  UNL1        0.0002
     17 C         143.2946  131.7811  154.3025 C.ar    1  UNL1        0.0009
     18 C         143.7693  132.1417  155.6789 C.ar    1  UNL1        0.0115
     19 C         143.4215  133.4774  156.2663 C.ar    1  UNL1        0.0622
     20 CL        143.8962  133.8380  157.6428 Cl      1  UNL1       -0.0821
     21 O         144.1867  138.9510  163.7249 O.3     1  UNL1       -0.4791
     22 C         143.1035  139.2463  164.7196 C.ar    1  UNL1        0.1384
     23 C         143.3964  139.1793  166.1892 C.ar    1  UNL1        0.0366
     24 C         142.3132  139.4746  167.1840 C.ar    1  UNL1        0.0002
     25 C         140.9372  139.8369  166.7091 C.ar    1  UNL1       -0.0059
     26 C         140.6444  139.9039  165.2395 C.ar    1  UNL1        0.0002
     27 C         141.7276  139.6086  164.2448 C.ar    1  UNL1        0.0366
     28 C         139.8541  140.1322  167.7040 C.3     1  UNL1        0.0991
     29 N         139.9802  141.3116  168.6221 N.3     1  UNL1       -0.2690
     30 C         139.5560  141.3588  170.0601 C.3     1  UNL1        0.0724
     31 C         139.8663  142.7273  170.5902 C.3     1  UNL1        0.0188
     32 C         140.4822  143.5258  169.4798 C.3     1  UNL1        0.0188
     33 C         140.5526  142.6509  168.2634 C.3     1  UNL1        0.0724
@<TRIPOS>BOND
     1     1     2    2
     2     2     9    1
     3     9    10   ar
     4    10    11   ar
     5    11    12   ar
     6    12    14    1
     7    14    15   ar
     8    15    16   ar
     9    16    17   ar
    10    17    18   ar
    11    18    19   ar
    12    19    20    1
    13    12    13   ar
    14     2     3   am
    15     3     4    1
    16     4     5    1
    17     5     6    1
    18     6    21    1
    19    21    22    1
    20    22    23   ar
    21    23    24   ar
    22    24    25   ar
    23    25    28    1
    24    28    29    1
    25    29    30    1
    26    30    31    1
    27    31    32    1
    28    32    33    1
    29    25    26   ar
    30    26    27   ar
    31     6     7    1
    32     7     8    1
    33    13     9   ar
    34     8     3    1
    35    19    14   ar
    36    27    22   ar
    37    33    29    1
@<TRIPOS>MOLECULE
*****
 33 37 0 0 0
SMALL
GASTEIGER

@<TRIPOS>ATOM
      1 O         140.6423  140.0410  157.3192 O.2     1  UNL1       -0.2647
      2 C         141.8265  139.3592  157.9379 C.2     1  UNL1        0.3045
      3 N         142.4165  139.8893  159.2111 N.am    1  UNL1       -0.2720
      4 C         143.6008  139.2074  159.8298 C.3     1  UNL1        0.0976
      5 C         144.1908  139.7374  161.1028 C.3     1  UNL1        0.0651
      6 C         143.5967  140.9493  161.7573 C.3     1  UNL1        0.1693
      7 C         142.4125  141.6313  161.1386 C.3     1  UNL1        0.0651
      8 C         141.8224  141.1012  159.8655 C.3     1  UNL1        0.0976
      9 C         142.4206  138.1473  157.2835 C.ar    1  UNL1        0.3042
     10 N         143.7315  138.0912  156.5565 N.ar    1  UNL1       -0.1021
     11 N         143.9292  136.6880  156.0648 N.ar    1  UNL1       -0.1067
     12 C         142.7405  135.8768  156.4879 C.ar    1  UNL1        0.2509
     13 O         141.8082  136.7787  157.2411 O.2     1  UNL1       -0.4122
     14 C         142.5225  134.4195  156.2071 C.ar    1  UNL1        0.0657
     15 C         141.6572  133.9986  155.0565 C.ar    1  UNL1        0.0056
     16 C         141.4392  132.5414  154.7758 C.ar    1  UNL1        0.0002
     17 C         142.0865  131.5050  155.6457 C.ar    1  UNL1        0.0009
     18 C         142.9518  131.9258  156.7964 C.ar    1  UNL1        0.0115
     19 C         143.1698  133.3830  157.0771 C.ar    1  UNL1        0.0622
     20 CL        144.0351  133.8039  158.2278 Cl      1  UNL1       -0.0821
     21 O         144.1867  141.4794  163.0304 O.3     1  UNL1       -0.4791
     22 C         143.7493  140.9177  164.3507 C.ar    1  UNL1        0.1384
     23 C         143.7584  139.4346  164.5748 C.ar    1  UNL1        0.0366
     24 C         143.3209  138.8730  165.8951 C.ar    1  UNL1        0.0002
     25 C         142.8743  139.7944  166.9912 C.ar    1  UNL1       -0.0059
     26 C         142.8652  141.2775  166.7671 C.ar    1  UNL1        0.0002
     27 C         143.3027  141.8392  165.4468 C.ar    1  UNL1        0.0366
     28 C         142.4369  139.2326  168.3115 C.3     1  UNL1        0.0991
     29 N         141.4231  139.9651  169.1395 N.3     1  UNL1       -0.2690
     30 C         141.6872  140.6685  170.4377 C.3     1  UNL1        0.0724
     31 C         140.3946  141.2610  170.9152 C.3     1  UNL1        0.0188
     32 C         139.3316  140.9237  169.9121 C.3     1  UNL1        0.0188
     33 C         139.9673  140.1228  168.8146 C.3     1  UNL1        0.0724
@<TRIPOS>BOND
     1     1     2    2
     2     2     9    1
     3     9    10   ar
     4    10    11   ar
     5    11    12   ar
     6    12    14    1
     7    14    15   ar
     8    15    16   ar
     9    16    17   ar
    10    17    18   ar
    11    18    19   ar
    12    19    20    1
    13    12    13   ar
    14     2     3   am
    15     3     4    1
    16     4     5    1
    17     5     6    1
    18     6    21    1
    19    21    22    1
    20    22    23   ar
    21    23    24   ar
    22    24    25   ar
    23    25    28    1
    24    28    29    1
    25    29    30    1
    26    30    31    1
    27    31    32    1
    28    32    33    1
    29    25    26   ar
    30    26    27   ar
    31     6     7    1
    32     7     8    1
    33    13     9   ar
    34     8     3    1
    35    19    14   ar
    36    27    22   ar
    37    33    29    1
@<TRIPOS>MOLECULE
*****
 33 37 0 0 0
SMALL
GASTEIGER

@<TRIPOS>ATOM
      1 O         140.7826  140.7817  156.7153 O.2     1  UNL1       -0.2647
      2 C         140.8450  139.6047  157.6431 C.2     1  UNL1        0.3045
      3 N         140.0844  139.6276  158.9358 N.am    1  UNL1       -0.2720
      4 C         140.1468  138.4505  159.8636 C.3     1  UNL1        0.0976
      5 C         139.3863  138.4734  161.1562 C.3     1  UNL1        0.0651
      6 C         138.5633  139.6732  161.5211 C.3     1  UNL1        0.1693
      7 C         138.5008  140.8502  160.5933 C.3     1  UNL1        0.0651
      8 C         139.2614  140.8274  159.3007 C.3     1  UNL1        0.0976
      9 C         141.6680  138.4049  157.2782 C.ar    1  UNL1        0.3042
     10 N         143.1663  138.3366  157.2577 N.ar    1  UNL1       -0.1021
     11 N         143.5615  136.9522  156.8366 N.ar    1  UNL1       -0.1067
     12 C         142.3074  136.1650  156.5969 C.ar    1  UNL1        0.2509
     13 O         141.1372  137.0628  156.8698 O.2     1  UNL1       -0.4122
     14 C         142.2361  134.7315  156.1607 C.ar    1  UNL1        0.0657
     15 C         141.4545  134.3581  154.9361 C.ar    1  UNL1        0.0056
     16 C         141.3832  132.9247  154.5000 C.ar    1  UNL1        0.0002
     17 C         142.0934  131.8647  155.2886 C.ar    1  UNL1        0.0009
     18 C         142.8750  132.2380  156.5132 C.ar    1  UNL1        0.0115
     19 C         142.9463  133.6714  156.9493 C.ar    1  UNL1        0.0622
     20 CL        143.7279  134.0448  158.1740 Cl      1  UNL1       -0.0821
     21 O         137.8027  139.6960  162.8138 O.3     1  UNL1       -0.4791
     22 C         138.5367  139.8461  164.1133 C.ar    1  UNL1        0.1384
     23 C         139.4549  141.0130  164.3256 C.ar    1  UNL1        0.0366
     24 C         140.1889  141.1630  165.6251 C.ar    1  UNL1        0.0002
     25 C         140.0047  140.1461  166.7123 C.ar    1  UNL1       -0.0059
     26 C         139.0864  138.9792  166.5000 C.ar    1  UNL1        0.0002
     27 C         138.3524  138.8292  165.2005 C.ar    1  UNL1        0.0366
     28 C         140.7387  140.2963  168.0118 C.3     1  UNL1        0.0991
     29 N         140.4960  141.4982  168.8758 N.3     1  UNL1       -0.2690
     30 C         141.0659  142.8688  168.6599 C.3     1  UNL1        0.0724
     31 C         140.5630  143.7581  169.7581 C.3     1  UNL1        0.0188
     32 C         139.6823  142.9372  170.6527 C.3     1  UNL1        0.0188
     33 C         139.6409  141.5404  170.1075 C.3     1  UNL1        0.0724
@<TRIPOS>BOND
     1     1     2    2
     2     2     9    1
     3     9    10   ar
     4    10    11   ar
     5    11    12   ar
     6    12    14    1
     7    14    15   ar
     8    15    16   ar
     9    16    17   ar
    10    17    18   ar
    11    18    19   ar
    12    19    20    1
    13    12    13   ar
    14     2     3   am
    15     3     4    1
    16     4     5    1
    17     5     6    1
    18     6    21    1
    19    21    22    1
    20    22    23   ar
    21    23    24   ar
    22    24    25   ar
    23    25    28    1
    24    28    29    1
    25    29    30    1
    26    30    31    1
    27    31    32    1
    28    32    33    1
    29    25    26   ar
    30    26    27   ar
    31     6     7    1
    32     7     8    1
    33    13     9   ar
    34     8     3    1
    35    19    14   ar
    36    27    22   ar
    37    33    29    1
@<TRIPOS>MOLECULE
*****
 33 37 0 0 0
SMALL
GASTEIGER

@<TRIPOS>ATOM
      1 O         142.1813  143.4227  156.8351 O.2     1  UNL1       -0.2647
      2 C         141.3074  144.4267  157.5266 C.2     1  UNL1        0.3045
      3 N         141.3377  144.5439  159.0217 N.am    1  UNL1       -0.2720
      4 C         140.4637  145.5480  159.7132 C.3     1  UNL1        0.0976
      5 C         140.4941  145.6652  161.2083 C.3     1  UNL1        0.0651
      6 C         141.3984  144.7784  162.0119 C.3     1  UNL1        0.1693
      7 C         142.2724  143.7743  161.3205 C.3     1  UNL1        0.0651
      8 C         142.2420  143.6571  159.8254 C.3     1  UNL1        0.0976
      9 C         140.4031  145.3135  156.7230 C.ar    1  UNL1        0.3042
     10 N         139.0799  144.9224  156.1346 N.ar    1  UNL1       -0.1021
     11 N         138.5223  146.1144  155.4146 N.ar    1  UNL1       -0.1067
     12 C         139.5008  147.2421  155.5580 C.ar    1  UNL1        0.2509
     13 O         140.6633  146.7472  156.3666 O.2     1  UNL1       -0.4122
     14 C         139.3445  148.6225  154.9921 C.ar    1  UNL1        0.0657
     15 C         139.8149  148.9198  153.5992 C.ar    1  UNL1        0.0056
     16 C         139.6586  150.3001  153.0334 C.ar    1  UNL1        0.0002
     17 C         139.0317  151.3831  153.8605 C.ar    1  UNL1        0.0009
     18 C         138.5612  151.0859  155.2534 C.ar    1  UNL1        0.0115
     19 C         138.7176  149.7055  155.8192 C.ar    1  UNL1        0.0622
     20 CL        138.2471  149.4082  157.2122 Cl      1  UNL1       -0.0821
     21 O         141.4287  144.8956  163.5070 O.3     1  UNL1       -0.4791
     22 C         141.4061  143.6597  164.3568 C.ar    1  UNL1        0.1384
     23 C         140.1202  142.9161  164.5650 C.ar    1  UNL1        0.0366
     24 C         140.0976  141.6803  165.4148 C.ar    1  UNL1        0.0002
     25 C         141.3610  141.1881  166.0564 C.ar    1  UNL1       -0.0059
     26 C         142.6469  141.9316  165.8482 C.ar    1  UNL1        0.0002
     27 C         142.6695  143.1675  164.9984 C.ar    1  UNL1        0.0366
     28 C         141.3383  139.9522  166.9062 C.3     1  UNL1        0.0991
     29 N         140.7181  139.9919  168.2714 N.3     1  UNL1       -0.2690
     30 C         141.4469  139.8545  169.5752 C.3     1  UNL1        0.0724
     31 C         140.4395  139.9537  170.6821 C.3     1  UNL1        0.0188
     32 C         139.0880  140.1524  170.0624 C.3     1  UNL1        0.0188
     33 C         139.2602  140.1760  168.5725 C.3     1  UNL1        0.0724
@<TRIPOS>BOND
     1     1     2    2
     2     2     9    1
     3     9    10   ar
     4    10    11   ar
     5    11    12   ar
     6    12    14    1
     7    14    15   ar
     8    15    16   ar
     9    16    17   ar
    10    17    18   ar
    11    18    19   ar
    12    19    20    1
    13    12    13   ar
    14     2     3   am
    15     3     4    1
    16     4     5    1
    17     5     6    1
    18     6    21    1
    19    21    22    1
    20    22    23   ar
    21    23    24   ar
    22    24    25   ar
    23    25    28    1
    24    28    29    1
    25    29    30    1
    26    30    31    1
    27    31    32    1
    28    32    33    1
    29    25    26   ar
    30    26    27   ar
    31     6     7    1
    32     7     8    1
    33    13     9   ar
    34     8     3    1
    35    19    14   ar
    36    27    22   ar
    37    33    29    1
@<TRIPOS>MOLECULE
*****
 33 37 0 0 0
SMALL
GASTEIGER

@<TRIPOS>ATOM
      1 O         137.1857  140.2422  161.3488 O.2     1  UNL1       -0.2647
      2 C         138.4994  139.5381  161.5168 C.2     1  UNL1        0.3045
      3 N         139.3910  139.3206  160.3302 N.am    1  UNL1       -0.2720
      4 C         140.7048  138.6165  160.4982 C.3     1  UNL1        0.0976
      5 C         141.5962  138.3991  159.3117 C.3     1  UNL1        0.0651
      6 C         141.1740  138.8858  157.9571 C.3     1  UNL1        0.1693
      7 C         139.8602  139.5900  157.7891 C.3     1  UNL1        0.0651
      8 C         138.9687  139.8074  158.9757 C.3     1  UNL1        0.0976
      9 C         138.9217  139.0513  162.8713 C.ar    1  UNL1        0.3042
     10 N         138.7795  137.6505  163.3887 N.ar    1  UNL1       -0.1021
     11 N         139.3302  137.6134  164.7834 N.ar    1  UNL1       -0.1067
     12 C         139.8128  138.9912  165.1281 C.ar    1  UNL1        0.2509
     13 O         139.5603  139.8799  163.9463 O.2     1  UNL1       -0.4122
     14 C         140.4381  139.4073  166.4266 C.ar    1  UNL1        0.0657
     15 C         139.5766  139.9114  167.5463 C.ar    1  UNL1        0.0056
     16 C         140.2019  140.3275  168.8446 C.ar    1  UNL1        0.0002
     17 C         141.6886  140.2395  169.0233 C.ar    1  UNL1        0.0009
     18 C         142.5501  139.7355  167.9036 C.ar    1  UNL1        0.0115
     19 C         141.9248  139.3194  166.6052 C.ar    1  UNL1        0.0622
     20 CL        142.7862  138.8153  165.4854 Cl      1  UNL1       -0.0821
     21 O         142.0655  138.6684  156.7706 O.3     1  UNL1       -0.4791
     22 C         142.2644  137.2853  156.2253 C.ar    1  UNL1        0.1384
     23 C         143.6510  136.7655  155.9864 C.ar    1  UNL1        0.0366
     24 C         143.8500  135.3824  155.4412 C.ar    1  UNL1        0.0002
     25 C         142.6622  134.5190  155.1348 C.ar    1  UNL1       -0.0059
     26 C         141.2756  135.0387  155.3736 C.ar    1  UNL1        0.0002
     27 C         141.0767  136.4218  155.9189 C.ar    1  UNL1        0.0366
     28 C         142.8613  133.1358  154.5895 C.3     1  UNL1        0.0991
     29 N         143.4171  132.0555  155.4693 N.3     1  UNL1       -0.2690
     30 C         143.1791  131.9091  156.9430 C.3     1  UNL1        0.0724
     31 C         143.9234  130.6951  157.4143 C.3     1  UNL1        0.0188
     32 C         144.6213  130.0912  156.2319 C.3     1  UNL1        0.0188
     33 C         144.3083  130.9320  155.0297 C.3     1  UNL1        0.0724
@<TRIPOS>BOND
     1     1     2    2
     2     2     9    1
     3     9    10   ar
     4    10    11   ar
     5    11    12   ar
     6    12    14    1
     7    14    15   ar
     8    15    16   ar
     9    16    17   ar
    10    17    18   ar
    11    18    19   ar
    12    19    20    1
    13    12    13   ar
    14     2     3   am
    15     3     4    1
    16     4     5    1
    17     5     6    1
    18     6    21    1
    19    21    22    1
    20    22    23   ar
    21    23    24   ar
    22    24    25   ar
    23    25    28    1
    24    28    29    1
    25    29    30    1
    26    30    31    1
    27    31    32    1
    28    32    33    1
    29    25    26   ar
    30    26    27   ar
    31     6     7    1
    32     7     8    1
    33    13     9   ar
    34     8     3    1
    35    19    14   ar
    36    27    22   ar
    37    33    29    1
@<TRIPOS>MOLECULE
*****
 33 37 0 0 0
SMALL
GASTEIGER

@<TRIPOS>ATOM
      1 O         140.4527  142.6400  157.7353 O.2     1  UNL1       -0.2647
      2 C         140.6514  141.4162  158.5796 C.2     1  UNL1        0.3045
      3 N         139.8797  141.2517  159.8553 N.am    1  UNL1       -0.2720
      4 C         140.0785  140.0279  160.6996 C.3     1  UNL1        0.0976
      5 C         139.3069  139.8634  161.9753 C.3     1  UNL1        0.0651
      6 C         138.3366  140.9227  162.4068 C.3     1  UNL1        0.1693
      7 C         138.1377  142.1466  161.5626 C.3     1  UNL1        0.0651
      8 C         138.9094  142.3111  160.2868 C.3     1  UNL1        0.0976
      9 C         141.6217  140.3568  158.1481 C.ar    1  UNL1        0.3042
     10 N         143.0982  140.3529  158.4131 N.ar    1  UNL1       -0.1021
     11 N         143.6750  139.1091  157.8046 N.ar    1  UNL1       -0.1067
     12 C         142.5551  138.3443  157.1636 C.ar    1  UNL1        0.2509
     13 O         141.2861  139.1155  157.3759 O.2     1  UNL1       -0.4122
     14 C         142.6818  137.0377  156.4378 C.ar    1  UNL1        0.0657
     15 C         142.9656  135.7791  157.2029 C.ar    1  UNL1        0.0056
     16 C         143.0924  134.4726  156.4770 C.ar    1  UNL1        0.0002
     17 C         142.9353  134.4247  154.9860 C.ar    1  UNL1        0.0009
     18 C         142.6515  135.6832  154.2209 C.ar    1  UNL1        0.0115
     19 C         142.5248  136.9897  154.9468 C.ar    1  UNL1        0.0622
     20 CL        142.2410  138.2484  154.1817 Cl      1  UNL1       -0.0821
     21 O         137.5649  140.7583  163.6825 O.3     1  UNL1       -0.4791
     22 C         138.2930  140.5936  164.9836 C.ar    1  UNL1        0.1384
     23 C         139.2847  141.6291  165.4243 C.ar    1  UNL1        0.0366
     24 C         140.0128  141.4644  166.7254 C.ar    1  UNL1        0.0002
     25 C         139.7493  140.2642  167.5856 C.ar    1  UNL1       -0.0059
     26 C         138.7577  139.2287  167.1449 C.ar    1  UNL1        0.0002
     27 C         138.0296  139.3934  165.8438 C.ar    1  UNL1        0.0366
     28 C         140.4775  140.0996  168.8867 C.3     1  UNL1        0.0991
     29 N         141.4906  141.1201  169.3135 N.3     1  UNL1       -0.2690
     30 C         142.9689  141.0505  169.0696 C.3     1  UNL1        0.0724
     31 C         143.5951  142.2768  169.6646 C.3     1  UNL1        0.0188
     32 C         142.5038  143.1043  170.2763 C.3     1  UNL1        0.0188
     33 C         141.2030  142.3894  170.0593 C.3     1  UNL1        0.0724
@<TRIPOS>BOND
     1     1     2    2
     2     2     9    1
     3     9    10   ar
     4    10    11   ar
     5    11    12   ar
     6    12    14    1
     7    14    15   ar
     8    15    16   ar
     9    16    17   ar
    10    17    18   ar
    11    18    19   ar
    12    19    20    1
    13    12    13   ar
    14     2     3   am
    15     3     4    1
    16     4     5    1
    17     5     6    1
    18     6    21    1
    19    21    22    1
    20    22    23   ar
    21    23    24   ar
    22    24    25   ar
    23    25    28    1
    24    28    29    1
    25    29    30    1
    26    30    31    1
    27    31    32    1
    28    32    33    1
    29    25    26   ar
    30    26    27   ar
    31     6     7    1
    32     7     8    1
    33    13     9   ar
    34     8     3    1
    35    19    14   ar
    36    27    22   ar
    37    33    29    1
@<TRIPOS>MOLECULE
*****
 33 37 0 0 0
SMALL
GASTEIGER

@<TRIPOS>ATOM
      1 O         137.3929  140.2625  157.8793 O.2     1  UNL1       -0.2647
      2 C         138.4785  139.8909  158.8454 C.2     1  UNL1        0.3045
      3 N         139.7092  139.1867  158.3561 N.am    1  UNL1       -0.2720
      4 C         140.7948  138.8150  159.3223 C.3     1  UNL1        0.0976
      5 C         142.0254  138.1108  158.8331 C.3     1  UNL1        0.0651
      6 C         142.1706  137.7782  157.3777 C.3     1  UNL1        0.1693
      7 C         141.0851  138.1498  156.4114 C.3     1  UNL1        0.0651
      8 C         139.8544  138.8540  156.9007 C.3     1  UNL1        0.0976
      9 C         138.3333  140.2236  160.3008 C.ar    1  UNL1        0.3042
     10 N         137.7398  139.3349  161.3535 N.ar    1  UNL1       -0.1021
     11 N         137.7959  140.0654  162.6623 N.ar    1  UNL1       -0.1067
     12 C         138.4241  141.4055  162.4187 C.ar    1  UNL1        0.2509
     13 O         138.7562  141.5033  160.9592 O.2     1  UNL1       -0.4122
     14 C         138.6759  142.4624  163.4530 C.ar    1  UNL1        0.0657
     15 C         137.5657  143.3787  163.8747 C.ar    1  UNL1        0.0056
     16 C         137.8176  144.4355  164.9089 C.ar    1  UNL1        0.0002
     17 C         139.1796  144.5760  165.5214 C.ar    1  UNL1        0.0009
     18 C         140.2898  143.6597  165.0997 C.ar    1  UNL1        0.0115
     19 C         140.0379  142.6029  164.0655 C.ar    1  UNL1        0.0622
     20 CL        141.1481  141.6866  163.6437 Cl      1  UNL1       -0.0821
     21 O         143.4013  137.0739  156.8884 O.3     1  UNL1       -0.4791
     22 C         143.2784  135.7716  156.1543 C.ar    1  UNL1        0.1384
     23 C         143.6755  134.4911  156.8270 C.ar    1  UNL1        0.0366
     24 C         143.5526  133.1888  156.0929 C.ar    1  UNL1        0.0002
     25 C         143.0325  133.1670  154.6861 C.ar    1  UNL1       -0.0059
     26 C         142.6354  134.4475  154.0134 C.ar    1  UNL1        0.0002
     27 C         142.7583  135.7498  154.7475 C.ar    1  UNL1        0.0366
     28 C         142.9096  131.8646  153.9522 C.3     1  UNL1        0.0991
     29 N         141.8586  130.8730  154.3547 N.3     1  UNL1       -0.2690
     30 C         142.0867  129.4230  154.6635 C.3     1  UNL1        0.0724
     31 C         140.7641  128.8112  155.0188 C.3     1  UNL1        0.0188
     32 C         139.7186  129.8830  154.9296 C.3     1  UNL1        0.0188
     33 C         140.3951  131.1574  154.5192 C.3     1  UNL1        0.0724
@<TRIPOS>BOND
     1     1     2    2
     2     2     9    1
     3     9    10   ar
     4    10    11   ar
     5    11    12   ar
     6    12    14    1
     7    14    15   ar
     8    15    16   ar
     9    16    17   ar
    10    17    18   ar
    11    18    19   ar
    12    19    20    1
    13    12    13   ar
    14     2     3   am
    15     3     4    1
    16     4     5    1
    17     5     6    1
    18     6    21    1
    19    21    22    1
    20    22    23   ar
    21    23    24   ar
    22    24    25   ar
    23    25    28    1
    24    28    29    1
    25    29    30    1
    26    30    31    1
    27    31    32    1
    28    32    33    1
    29    25    26   ar
    30    26    27   ar
    31     6     7    1
    32     7     8    1
    33    13     9   ar
    34     8     3    1
    35    19    14   ar
    36    27    22   ar
    37    33    29    1
@<TRIPOS>MOLECULE
*****
 33 37 0 0 0
SMALL
GASTEIGER

@<TRIPOS>ATOM
      1 O         137.3038  140.7342  163.3249 O.2     1  UNL1       -0.2647
      2 C         138.4880  139.9802  163.8531 C.2     1  UNL1        0.3045
      3 N         139.4997  139.4113  162.9029 N.am    1  UNL1       -0.2720
      4 C         140.6840  138.6572  163.4312 C.3     1  UNL1        0.0976
      5 C         141.6956  138.0884  162.4811 C.3     1  UNL1        0.0651
      6 C         141.5230  138.2735  161.0026 C.3     1  UNL1        0.1693
      7 C         140.3388  139.0275  160.4742 C.3     1  UNL1        0.0651
      8 C         139.3271  139.5964  161.4244 C.3     1  UNL1        0.0976
      9 C         138.6606  139.7950  165.3316 C.ar    1  UNL1        0.3042
     10 N         137.8190  138.9225  166.2151 N.ar    1  UNL1       -0.1021
     11 N         138.3433  139.0382  167.6158 N.ar    1  UNL1       -0.1067
     12 C         139.5089  139.9822  167.5979 C.ar    1  UNL1        0.2509
     13 O         139.7049  140.4499  166.1862 O.2     1  UNL1       -0.4122
     14 C         140.3336  140.3873  168.7836 C.ar    1  UNL1        0.0657
     15 C         139.6981  141.1318  169.9201 C.ar    1  UNL1        0.0056
     16 C         140.5229  141.5369  171.1057 C.ar    1  UNL1        0.0002
     17 C         141.9831  141.1975  171.1547 C.ar    1  UNL1        0.0009
     18 C         142.6187  140.4530  170.0182 C.ar    1  UNL1        0.0115
     19 C         141.7939  140.0479  168.8326 C.ar    1  UNL1        0.0622
     20 CL        142.4294  139.3034  167.6959 Cl      1  UNL1       -0.0821
     21 O         142.5347  137.7046  160.0523 O.3     1  UNL1       -0.4791
     22 C         142.8992  138.4562  158.8065 C.ar    1  UNL1        0.1384
     23 C         143.5389  139.8092  158.9070 C.ar    1  UNL1        0.0366
     24 C         143.9035  140.5609  157.6612 C.ar    1  UNL1        0.0002
     25 C         143.6283  139.9595  156.3148 C.ar    1  UNL1       -0.0059
     26 C         142.9886  138.6065  156.2143 C.ar    1  UNL1        0.0002
     27 C         142.6240  137.8549  157.4601 C.ar    1  UNL1        0.0366
     28 C         143.9929  140.7113  155.0690 C.3     1  UNL1        0.0991
     29 N         145.2640  141.5059  155.0174 N.3     1  UNL1       -0.2690
     30 C         146.6299  141.0095  155.3888 C.3     1  UNL1        0.0724
     31 C         147.6025  142.1333  155.1863 C.3     1  UNL1        0.0188
     32 C         146.8377  143.3243  154.6897 C.3     1  UNL1        0.0188
     33 C         145.3924  142.9366  154.5854 C.3     1  UNL1        0.0724
@<TRIPOS>BOND
     1     1     2    2
     2     2     9    1
     3     9    10   ar
     4    10    11   ar
     5    11    12   ar
     6    12    14    1
     7    14    15   ar
     8    15    16   ar
     9    16    17   ar
    10    17    18   ar
    11    18    19   ar
    12    19    20    1
    13    12    13   ar
    14     2     3   am
    15     3     4    1
    16     4     5    1
    17     5     6    1
    18     6    21    1
    19    21    22    1
    20    22    23   ar
    21    23    24   ar
    22    24    25   ar
    23    25    28    1
    24    28    29    1
    25    29    30    1
    26    30    31    1
    27    31    32    1
    28    32    33    1
    29    25    26   ar
    30    26    27   ar
    31     6     7    1
    32     7     8    1
    33    13     9   ar
    34     8     3    1
    35    19    14   ar
    36    27    22   ar
    37    33    29    1
@<TRIPOS>MOLECULE
*****
 33 37 0 0 0
SMALL
GASTEIGER

@<TRIPOS>ATOM
      1 O         143.8619  140.8933  155.8948 O.2     1  UNL1       -0.2647
      2 C         143.5704  140.0656  157.1113 C.2     1  UNL1        0.3045
      3 N         143.8653  140.6102  158.4774 N.am    1  UNL1       -0.2720
      4 C         143.5738  139.7824  159.6939 C.3     1  UNL1        0.0976
      5 C         143.8688  140.3270  161.0600 C.3     1  UNL1        0.0651
      6 C         144.4552  141.6995  161.2097 C.3     1  UNL1        0.1693
      7 C         144.7467  142.5274  159.9933 C.3     1  UNL1        0.0651
      8 C         144.4518  141.9827  158.6271 C.3     1  UNL1        0.0976
      9 C         142.9840  138.6931  156.9616 C.ar    1  UNL1        0.3042
     10 N         141.5298  138.3395  157.0648 N.ar    1  UNL1       -0.1021
     11 N         141.3959  136.8611  156.8494 N.ar    1  UNL1       -0.1067
     12 C         142.7671  136.3010  156.6131 C.ar    1  UNL1        0.2509
     13 O         143.7486  137.4332  156.6824 O.2     1  UNL1       -0.4122
     14 C         143.0987  134.8613  156.3530 C.ar    1  UNL1        0.0657
     15 C         143.6148  133.9978  157.4657 C.ar    1  UNL1        0.0056
     16 C         143.9463  132.5582  157.2056 C.ar    1  UNL1        0.0002
     17 C         143.7619  131.9822  155.8330 C.ar    1  UNL1        0.0009
     18 C         143.2459  132.8458  154.7203 C.ar    1  UNL1        0.0115
     19 C         142.9143  134.2853  154.9804 C.ar    1  UNL1        0.0622
     20 CL        142.3983  135.1490  153.8677 Cl      1  UNL1       -0.0821
     21 O         144.7501  142.2441  162.5758 O.3     1  UNL1       -0.4791
     22 C         143.6387  142.4272  163.5663 C.ar    1  UNL1        0.1384
     23 C         142.3563  143.0796  163.1424 C.ar    1  UNL1        0.0366
     24 C         141.2448  143.2627  164.1329 C.ar    1  UNL1        0.0002
     25 C         141.4157  142.7933  165.5473 C.ar    1  UNL1       -0.0059
     26 C         142.6981  142.1409  165.9712 C.ar    1  UNL1        0.0002
     27 C         143.8096  141.9578  164.9807 C.ar    1  UNL1        0.0366
     28 C         140.3041  142.9764  166.5377 C.3     1  UNL1        0.0991
     29 N         140.2439  142.1163  167.7651 N.3     1  UNL1       -0.2690
     30 C         139.8795  140.6618  167.8055 C.3     1  UNL1        0.0724
     31 C         139.9478  140.2063  169.2330 C.3     1  UNL1        0.0188
     32 C         140.3544  141.3793  170.0749 C.3     1  UNL1        0.0188
     33 C         140.5374  142.5598  169.1677 C.3     1  UNL1        0.0724
@<TRIPOS>BOND
     1     1     2    2
     2     2     9    1
     3     9    10   ar
     4    10    11   ar
     5    11    12   ar
     6    12    14    1
     7    14    15   ar
     8    15    16   ar
     9    16    17   ar
    10    17    18   ar
    11    18    19   ar
    12    19    20    1
    13    12    13   ar
    14     2     3   am
    15     3     4    1
    16     4     5    1
    17     5     6    1
    18     6    21    1
    19    21    22    1
    20    22    23   ar
    21    23    24   ar
    22    24    25   ar
    23    25    28    1
    24    28    29    1
    25    29    30    1
    26    30    31    1
    27    31    32    1
    28    32    33    1
    29    25    26   ar
    30    26    27   ar
    31     6     7    1
    32     7     8    1
    33    13     9   ar
    34     8     3    1
    35    19    14   ar
    36    27    22   ar
    37    33    29    1
