@<TRIPOS>MOLECULE
*****
 30 32 0 0 0
SMALL
GASTEIGER

@<TRIPOS>ATOM
      1 C         142.8233  143.1095  164.6859 C.ar    1  UNL1        0.1409
      2 N         141.8464  144.2162  164.4201 N.ar    1  UNL1       -0.1986
      3 C         141.9159  144.9851  163.1339 C.ar    1  UNL1        0.2181
      4 N         142.9623  144.6472  162.1137 N.ar    1  UNL1       -0.2120
      5 C         143.9393  143.5404  162.3796 C.ar    1  UNL1        0.1091
      6 C         143.8698  142.7716  163.6657 C.ar    1  UNL1        0.1040
      7 C         144.8467  141.6648  163.9315 C.2     1  UNL1        0.2470
      8 N         146.2846  141.8221  163.5342 N.am    1  UNL1       -0.3252
      9 O         144.3858  140.4008  164.5947 O.2     1  UNL1       -0.2702
     10 H         146.5871  142.6517  163.0990 H       1  UNL1        0.1453
     11 H         146.9257  141.0957  163.7088 H       1  UNL1        0.1453
     12 N         142.7539  142.3406  165.9720 N.pl3   1  UNL1       -0.2977
     13 H         143.4957  142.3923  166.6171 H       1  UNL1        0.1536
     14 C         139.3549  140.4137  169.3975 C.3     1  UNL1        0.0311
     15 C         139.8546  140.5294  167.9879 C.ar    1  UNL1       -0.0206
     16 C         139.1546  139.7975  166.8815 C.ar    1  UNL1       -0.0042
     17 C         139.6542  139.9132  165.4720 C.ar    1  UNL1        0.0009
     18 C         140.8540  140.7609  165.1688 C.ar    1  UNL1        0.0146
     19 C         141.5541  141.4928  166.2752 C.ar    1  UNL1        0.0491
     20 C         141.0544  141.3771  167.6847 C.ar    1  UNL1        0.0104
     21 N         140.9390  146.0918  162.8680 N.pl3   1  UNL1       -0.3016
     22 H         141.1651  147.0178  163.1143 H       1  UNL1        0.1497
     23 C         139.6174  145.7877  162.2269 C.3     1  UNL1        0.1052
     24 C         138.8816  144.5306  162.5851 C.3     1  UNL1        0.0738
     25 C         138.4054  144.3151  163.9911 C.3     1  UNL1        0.0175
     26 C         137.6696  143.0580  164.3493 C.3     1  UNL1        0.0029
     27 C         137.4100  142.0165  163.3017 C.3     1  UNL1        0.0171
     28 C         137.8862  142.2319  161.8956 C.3     1  UNL1        0.0686
     29 N         138.6220  143.4890  161.5374 N.3     1  UNL1       -0.2972
     30 H         138.0866  143.9428  160.7973 H       1  UNL1        0.1233
@<TRIPOS>BOND
     1    14    15    1
     2    15    16   ar
     3    16    17   ar
     4    17    18   ar
     5    18    19   ar
     6    19    12    1
     7    12     1    1
     8     1     2   ar
     9     2     3   ar
    10     3    21    1
    11    21    23    1
    12    23    24    1
    13    24    25    1
    14    25    26    1
    15    26    27    1
    16    27    28    1
    17    28    29    1
    18     3     4   ar
    19     4     5   ar
    20     5     6   ar
    21     6     7    1
    22     7     8   am
    23     7     9    2
    24    19    20   ar
    25    20    15   ar
    26     6     1   ar
    27    29    24    1
    28    12    13    1
    29    21    22    1
    30    29    30    1
    31     8    10    1
    32     8    11    1
@<TRIPOS>MOLECULE
*****
 30 32 0 0 0
SMALL
GASTEIGER

@<TRIPOS>ATOM
      1 C         142.9677  142.5038  164.1003 C.ar    1  UNL1        0.1409
      2 N         142.0652  143.7020  164.1052 N.ar    1  UNL1       -0.1986
      3 C         142.1110  144.6800  162.9687 C.ar    1  UNL1        0.2181
      4 N         143.0592  144.4598  161.8275 N.ar    1  UNL1       -0.2120
      5 C         143.9616  143.2617  161.8227 C.ar    1  UNL1        0.1091
      6 C         143.9159  142.2837  162.9590 C.ar    1  UNL1        0.1040
      7 C         144.8183  141.0855  162.9542 C.2     1  UNL1        0.2470
      8 N         144.6693  140.0387  161.8904 N.am    1  UNL1       -0.3252
      9 O         145.8698  140.9343  164.0133 O.2     1  UNL1       -0.2702
     10 H         143.9792  140.1379  161.1953 H       1  UNL1        0.1453
     11 H         145.2616  139.2523  161.8872 H       1  UNL1        0.1453
     12 N         142.9219  141.5259  165.2367 N.pl3   1  UNL1       -0.2977
     13 H         143.5015  141.6561  166.0218 H       1  UNL1        0.1536
     14 C         138.1661  139.5134  165.8133 C.3     1  UNL1        0.0311
     15 C         139.6152  139.3433  165.4652 C.ar    1  UNL1       -0.0206
     16 C         140.1356  137.9969  165.0574 C.ar    1  UNL1       -0.0042
     17 C         141.5847  137.8268  164.7094 C.ar    1  UNL1        0.0009
     18 C         142.5135  139.0031  164.7691 C.ar    1  UNL1        0.0146
     19 C         141.9931  140.3495  165.1770 C.ar    1  UNL1        0.0491
     20 C         140.5440  140.5196  165.5250 C.ar    1  UNL1        0.0104
     21 N         141.2086  145.8782  162.9735 N.pl3   1  UNL1       -0.3016
     22 H         141.5330  146.7373  163.3282 H       1  UNL1        0.1497
     23 C         139.8118  145.7672  162.4379 C.3     1  UNL1        0.1052
     24 C         139.0047  144.5300  162.6985 C.3     1  UNL1        0.0738
     25 C         138.5247  144.2262  164.0867 C.3     1  UNL1        0.0175
     26 C         137.7176  142.9890  164.3473 C.3     1  UNL1        0.0029
     27 C         137.3906  142.0555  163.2197 C.3     1  UNL1        0.0171
     28 C         137.8706  142.3593  161.8313 C.3     1  UNL1        0.0686
     29 N         138.6777  143.5965  161.5708 N.3     1  UNL1       -0.2972
     30 H         138.1659  144.1412  160.8767 H       1  UNL1        0.1233
@<TRIPOS>BOND
     1    14    15    1
     2    15    16   ar
     3    16    17   ar
     4    17    18   ar
     5    18    19   ar
     6    19    12    1
     7    12     1    1
     8     1     2   ar
     9     2     3   ar
    10     3    21    1
    11    21    23    1
    12    23    24    1
    13    24    25    1
    14    25    26    1
    15    26    27    1
    16    27    28    1
    17    28    29    1
    18     3     4   ar
    19     4     5   ar
    20     5     6   ar
    21     6     7    1
    22     7     8   am
    23     7     9    2
    24    19    20   ar
    25    20    15   ar
    26     6     1   ar
    27    29    24    1
    28    12    13    1
    29    21    22    1
    30    29    30    1
    31     8    10    1
    32     8    11    1
@<TRIPOS>MOLECULE
*****
 30 32 0 0 0
SMALL
GASTEIGER

@<TRIPOS>ATOM
      1 C         139.4578  141.8109  164.6757 C.ar    1  UNL1        0.1409
      2 N         139.7800  140.3465  164.7176 N.ar    1  UNL1       -0.1986
      3 C         138.9155  139.3669  163.9807 C.ar    1  UNL1        0.2181
      4 N         137.7288  139.8516  163.2018 N.ar    1  UNL1       -0.2120
      5 C         137.4065  141.3160  163.1599 C.ar    1  UNL1        0.1091
      6 C         138.2709  142.2956  163.8968 C.ar    1  UNL1        0.1040
      7 C         137.9487  143.7600  163.8549 C.2     1  UNL1        0.2470
      8 N         137.5685  144.4074  162.5563 N.am    1  UNL1       -0.3252
      9 O         138.0066  144.5769  165.1116 O.2     1  UNL1       -0.2702
     10 H         137.5305  143.8712  161.7315 H       1  UNL1        0.1453
     11 H         137.3570  145.3685  162.5288 H       1  UNL1        0.1453
     12 N         140.3222  142.7905  165.4126 N.pl3   1  UNL1       -0.2977
     13 H         140.0658  143.0925  166.3139 H       1  UNL1        0.1536
     14 C         145.3203  142.1529  164.1428 C.3     1  UNL1        0.0311
     15 C         144.0764  142.9911  164.1414 C.ar    1  UNL1       -0.0206
     16 C         144.0876  144.3488  163.5038 C.ar    1  UNL1       -0.0042
     17 C         142.8436  145.1870  163.5024 C.ar    1  UNL1        0.0009
     18 C         141.5885  144.6676  164.1387 C.ar    1  UNL1        0.0146
     19 C         141.5774  143.3099  164.7763 C.ar    1  UNL1        0.0491
     20 C         142.8213  142.4717  164.7777 C.ar    1  UNL1        0.0104
     21 N         139.2378  137.9025  164.0226 N.pl3   1  UNL1       -0.3016
     22 H         138.5271  137.2376  163.8739 H       1  UNL1        0.1497
     23 C         140.6429  137.4512  164.2910 C.3     1  UNL1        0.1052
     24 C         141.7393  137.7993  163.3283 C.3     1  UNL1        0.0738
     25 C         142.9021  138.6298  163.7843 C.3     1  UNL1        0.0175
     26 C         143.9985  138.9779  162.8216 C.3     1  UNL1        0.0029
     27 C         143.9320  138.4955  161.4029 C.3     1  UNL1        0.0171
     28 C         142.7692  137.6649  160.9468 C.3     1  UNL1        0.0686
     29 N         141.6728  137.3168  161.9096 N.3     1  UNL1       -0.2972
     30 H         141.6259  136.2986  161.9467 H       1  UNL1        0.1233
@<TRIPOS>BOND
     1    14    15    1
     2    15    16   ar
     3    16    17   ar
     4    17    18   ar
     5    18    19   ar
     6    19    12    1
     7    12     1    1
     8     1     2   ar
     9     2     3   ar
    10     3    21    1
    11    21    23    1
    12    23    24    1
    13    24    25    1
    14    25    26    1
    15    26    27    1
    16    27    28    1
    17    28    29    1
    18     3     4   ar
    19     4     5   ar
    20     5     6   ar
    21     6     7    1
    22     7     8   am
    23     7     9    2
    24    19    20   ar
    25    20    15   ar
    26     6     1   ar
    27    29    24    1
    28    12    13    1
    29    21    22    1
    30    29    30    1
    31     8    10    1
    32     8    11    1
@<TRIPOS>MOLECULE
*****
 30 32 0 0 0
SMALL
GASTEIGER

@<TRIPOS>ATOM
      1 C         138.7952  142.1235  164.5193 C.ar    1  UNL1        0.1409
      2 N         138.3040  140.8848  163.8305 N.ar    1  UNL1       -0.1986
      3 C         137.7060  140.9770  162.4579 C.ar    1  UNL1        0.2181
      4 N         137.5993  142.3078  161.7741 N.ar    1  UNL1       -0.2120
      5 C         138.0905  143.5464  162.4629 C.ar    1  UNL1        0.1091
      6 C         138.6885  143.4543  163.8354 C.ar    1  UNL1        0.1040
      7 C         139.1797  144.6930  164.5242 C.2     1  UNL1        0.2470
      8 N         140.3362  145.4595  163.9542 N.am    1  UNL1       -0.3252
      9 O         138.5145  145.1651  165.7830 O.2     1  UNL1       -0.2702
     10 H         140.7728  145.1497  163.1280 H       1  UNL1        0.1453
     11 H         140.6586  146.2725  164.4062 H       1  UNL1        0.1453
     12 N         139.3932  142.0314  165.8918 N.pl3   1  UNL1       -0.2977
     13 H         138.9835  142.5212  166.6411 H       1  UNL1        0.1536
     14 C         144.0253  140.2949  164.3016 C.3     1  UNL1        0.0311
     15 C         142.9314  140.3248  165.3276 C.ar    1  UNL1       -0.0206
     16 C         143.0598  139.5163  166.5845 C.ar    1  UNL1       -0.0042
     17 C         141.9660  139.5461  167.6105 C.ar    1  UNL1        0.0009
     18 C         140.7438  140.3844  167.3796 C.ar    1  UNL1        0.0146
     19 C         140.6154  141.1930  166.1227 C.ar    1  UNL1        0.0491
     20 C         141.7092  141.1631  165.0967 C.ar    1  UNL1        0.0104
     21 N         137.2147  139.7383  161.7692 N.pl3   1  UNL1       -0.3016
     22 H         136.2615  139.6475  161.5402 H       1  UNL1        0.1497
     23 C         138.1758  138.6379  161.4292 C.3     1  UNL1        0.1052
     24 C         139.1664  138.1650  162.4515 C.3     1  UNL1        0.0738
     25 C         140.6014  137.9591  162.0662 C.3     1  UNL1        0.0175
     26 C         141.5920  137.4862  163.0885 C.3     1  UNL1        0.0029
     27 C         141.1476  137.2191  164.4960 C.3     1  UNL1        0.0171
     28 C         139.7126  137.4250  164.8814 C.3     1  UNL1        0.0686
     29 N         138.7220  137.8979  163.8591 N.3     1  UNL1       -0.2972
     30 H         138.3265  138.7689  164.2132 H       1  UNL1        0.1233
@<TRIPOS>BOND
     1    14    15    1
     2    15    16   ar
     3    16    17   ar
     4    17    18   ar
     5    18    19   ar
     6    19    12    1
     7    12     1    1
     8     1     2   ar
     9     2     3   ar
    10     3    21    1
    11    21    23    1
    12    23    24    1
    13    24    25    1
    14    25    26    1
    15    26    27    1
    16    27    28    1
    17    28    29    1
    18     3     4   ar
    19     4     5   ar
    20     5     6   ar
    21     6     7    1
    22     7     8   am
    23     7     9    2
    24    19    20   ar
    25    20    15   ar
    26     6     1   ar
    27    29    24    1
    28    12    13    1
    29    21    22    1
    30    29    30    1
    31     8    10    1
    32     8    11    1
@<TRIPOS>MOLECULE
*****
 30 32 0 0 0
SMALL
GASTEIGER

@<TRIPOS>ATOM
      1 C         138.2608  140.1476  164.2157 C.ar    1  UNL1        0.1409
      2 N         138.0857  141.5909  164.5848 N.ar    1  UNL1       -0.1986
      3 C         137.8033  142.6085  163.5196 C.ar    1  UNL1        0.2181
      4 N         137.6960  142.1829  162.0853 N.ar    1  UNL1       -0.2120
      5 C         137.8711  140.7396  161.7161 C.ar    1  UNL1        0.1091
      6 C         138.1535  139.7220  162.7813 C.ar    1  UNL1        0.1040
      7 C         138.3286  138.2787  162.4121 C.2     1  UNL1        0.2470
      8 N         137.3299  137.6070  161.5171 N.am    1  UNL1       -0.3252
      9 O         139.5026  137.5071  162.9381 O.2     1  UNL1       -0.2702
     10 H         136.5594  138.1133  161.1719 H       1  UNL1        0.1453
     11 H         137.4448  136.6597  161.2748 H       1  UNL1        0.1453
     12 N         138.5432  139.1299  165.2808 N.pl3   1  UNL1       -0.2977
     13 H         138.0623  138.2709  165.2807 H       1  UNL1        0.1536
     14 C         139.6755  140.4354  170.1812 C.3     1  UNL1        0.0311
     15 C         140.1244  140.0739  168.7963 C.ar    1  UNL1       -0.0206
     16 C         141.5882  140.0036  168.4768 C.ar    1  UNL1       -0.0042
     17 C         142.0371  139.6421  167.0919 C.ar    1  UNL1        0.0009
     18 C         141.0221  139.3508  166.0266 C.ar    1  UNL1        0.0146
     19 C         139.5582  139.4212  166.3462 C.ar    1  UNL1        0.0491
     20 C         139.1094  139.7827  167.7310 C.ar    1  UNL1        0.0104
     21 N         137.6282  144.0518  163.8887 N.pl3   1  UNL1       -0.3016
     22 H         136.8382  144.5480  163.5741 H       1  UNL1        0.1497
     23 C         138.6567  144.7391  164.7372 C.3     1  UNL1        0.1052
     24 C         140.1062  144.3796  164.5971 C.3     1  UNL1        0.0738
     25 C         140.9834  145.1533  163.6581 C.3     1  UNL1        0.0175
     26 C         142.4330  144.7939  163.5180 C.3     1  UNL1        0.0029
     27 C         143.0053  143.6608  164.3169 C.3     1  UNL1        0.0171
     28 C         142.1281  142.8870  165.2560 C.3     1  UNL1        0.0686
     29 N         140.6786  143.2464  165.3961 N.3     1  UNL1       -0.2972
     30 H         140.5248  143.4719  166.3789 H       1  UNL1        0.1233
@<TRIPOS>BOND
     1    14    15    1
     2    15    16   ar
     3    16    17   ar
     4    17    18   ar
     5    18    19   ar
     6    19    12    1
     7    12     1    1
     8     1     2   ar
     9     2     3   ar
    10     3    21    1
    11    21    23    1
    12    23    24    1
    13    24    25    1
    14    25    26    1
    15    26    27    1
    16    27    28    1
    17    28    29    1
    18     3     4   ar
    19     4     5   ar
    20     5     6   ar
    21     6     7    1
    22     7     8   am
    23     7     9    2
    24    19    20   ar
    25    20    15   ar
    26     6     1   ar
    27    29    24    1
    28    12    13    1
    29    21    22    1
    30    29    30    1
    31     8    10    1
    32     8    11    1
@<TRIPOS>MOLECULE
*****
 30 32 0 0 0
SMALL
GASTEIGER

@<TRIPOS>ATOM
      1 C         139.2173  143.3280  162.7450 C.ar    1  UNL1        0.1409
      2 N         138.4311  142.0540  162.8391 N.ar    1  UNL1       -0.1986
      3 C         138.0213  141.3316  161.5899 C.ar    1  UNL1        0.2181
      4 N         138.3978  141.8832  160.2468 N.ar    1  UNL1       -0.2120
      5 C         139.1840  143.1572  160.1528 C.ar    1  UNL1        0.1091
      6 C         139.5937  143.8796  161.4018 C.ar    1  UNL1        0.1040
      7 C         140.3799  145.1536  161.3078 C.2     1  UNL1        0.2470
      8 N         141.7207  145.1596  160.6354 N.am    1  UNL1       -0.3252
      9 O         139.8253  146.4216  161.8862 O.2     1  UNL1       -0.2702
     10 H         142.0848  144.3273  160.2557 H       1  UNL1        0.1453
     11 H         142.2367  145.9957  160.5736 H       1  UNL1        0.1453
     12 N         139.6270  144.0504  163.9941 N.pl3   1  UNL1       -0.2977
     13 H         139.2011  144.9061  164.2300 H       1  UNL1        0.1536
     14 C         144.6324  143.0647  164.9811 C.3     1  UNL1        0.0311
     15 C         143.1884  142.9763  165.3772 C.ar    1  UNL1       -0.0206
     16 C         142.8030  142.3066  166.6628 C.ar    1  UNL1       -0.0042
     17 C         141.3589  142.2182  167.0589 C.ar    1  UNL1        0.0009
     18 C         140.3003  142.7994  166.1694 C.ar    1  UNL1        0.0146
     19 C         140.6857  143.4691  164.8837 C.ar    1  UNL1        0.0491
     20 C         142.1297  143.5576  164.4876 C.ar    1  UNL1        0.0104
     21 N         137.2351  140.0576  161.6840 N.pl3   1  UNL1       -0.3016
     22 H         136.2637  140.0891  161.8404 H       1  UNL1        0.1497
     23 C         137.9291  138.7356  161.5397 C.3     1  UNL1        0.1052
     24 C         138.9264  138.2957  162.5702 C.3     1  UNL1        0.0738
     25 C         138.6542  138.5321  164.0262 C.3     1  UNL1        0.0175
     26 C         139.6515  138.0922  165.0567 C.3     1  UNL1        0.0029
     27 C         140.9209  137.4158  164.6312 C.3     1  UNL1        0.0171
     28 C         141.1931  137.1793  163.1751 C.3     1  UNL1        0.0686
     29 N         140.1958  137.6193  162.1446 N.3     1  UNL1       -0.2972
     30 H         139.9248  136.7860  161.6226 H       1  UNL1        0.1233
@<TRIPOS>BOND
     1    14    15    1
     2    15    16   ar
     3    16    17   ar
     4    17    18   ar
     5    18    19   ar
     6    19    12    1
     7    12     1    1
     8     1     2   ar
     9     2     3   ar
    10     3    21    1
    11    21    23    1
    12    23    24    1
    13    24    25    1
    14    25    26    1
    15    26    27    1
    16    27    28    1
    17    28    29    1
    18     3     4   ar
    19     4     5   ar
    20     5     6   ar
    21     6     7    1
    22     7     8   am
    23     7     9    2
    24    19    20   ar
    25    20    15   ar
    26     6     1   ar
    27    29    24    1
    28    12    13    1
    29    21    22    1
    30    29    30    1
    31     8    10    1
    32     8    11    1
@<TRIPOS>MOLECULE
*****
 30 32 0 0 0
SMALL
GASTEIGER

@<TRIPOS>ATOM
      1 C         141.2411  144.1213  163.5246 C.ar    1  UNL1        0.1409
      2 N         142.6293  143.5749  163.6805 N.ar    1  UNL1       -0.1986
      3 C         143.5549  143.5311  162.5008 C.ar    1  UNL1        0.2181
      4 N         143.0922  144.0337  161.1654 N.ar    1  UNL1       -0.2120
      5 C         141.7040  144.5800  161.0096 C.ar    1  UNL1        0.1091
      6 C         140.7784  144.6239  162.1891 C.ar    1  UNL1        0.1040
      7 C         139.3902  145.1702  162.0333 C.2     1  UNL1        0.2470
      8 N         139.1801  146.5168  161.4068 N.am    1  UNL1       -0.3252
      9 O         138.2120  144.3699  162.5039 O.2     1  UNL1       -0.2702
     10 H         139.9534  147.0421  161.0979 H       1  UNL1        0.1453
     11 H         138.2690  146.8754  161.3045 H       1  UNL1        0.1453
     12 N         140.3155  144.1651  164.7042 N.pl3   1  UNL1       -0.2977
     13 H         139.8501  145.0017  164.9338 H       1  UNL1        0.1536
     14 C         138.3637  139.3783  165.2296 C.3     1  UNL1        0.0311
     15 C         139.1232  140.5409  165.7965 C.ar    1  UNL1       -0.0206
     16 C         139.6663  140.4728  167.1931 C.ar    1  UNL1       -0.0042
     17 C         140.4258  141.6354  167.7600 C.ar    1  UNL1        0.0009
     18 C         140.6422  142.8662  166.9304 C.ar    1  UNL1        0.0146
     19 C         140.0991  142.9343  165.5339 C.ar    1  UNL1        0.0491
     20 C         139.3396  141.7717  164.9669 C.ar    1  UNL1        0.0104
     21 N         144.9432  142.9848  162.6567 N.pl3   1  UNL1       -0.3016
     22 H         145.6619  143.2881  162.0561 H       1  UNL1        0.1497
     23 C         145.2364  141.9762  163.7277 C.3     1  UNL1        0.1052
     24 C         144.3353  140.7907  163.9084 C.3     1  UNL1        0.0738
     25 C         143.5790  140.6123  165.1914 C.3     1  UNL1        0.0175
     26 C         142.6779  139.4268  165.3722 C.3     1  UNL1        0.0029
     27 C         142.5331  138.4198  164.2699 C.3     1  UNL1        0.0171
     28 C         143.2895  138.5982  162.9869 C.3     1  UNL1        0.0686
     29 N         144.1906  139.7837  162.8061 N.3     1  UNL1       -0.2972
     30 H         143.8512  140.2894  161.9879 H       1  UNL1        0.1233
@<TRIPOS>BOND
     1    14    15    1
     2    15    16   ar
     3    16    17   ar
     4    17    18   ar
     5    18    19   ar
     6    19    12    1
     7    12     1    1
     8     1     2   ar
     9     2     3   ar
    10     3    21    1
    11    21    23    1
    12    23    24    1
    13    24    25    1
    14    25    26    1
    15    26    27    1
    16    27    28    1
    17    28    29    1
    18     3     4   ar
    19     4     5   ar
    20     5     6   ar
    21     6     7    1
    22     7     8   am
    23     7     9    2
    24    19    20   ar
    25    20    15   ar
    26     6     1   ar
    27    29    24    1
    28    12    13    1
    29    21    22    1
    30    29    30    1
    31     8    10    1
    32     8    11    1
@<TRIPOS>MOLECULE
*****
 30 32 0 0 0
SMALL
GASTEIGER

@<TRIPOS>ATOM
      1 C         141.8102  139.8295  163.7227 C.ar    1  UNL1        0.1409
      2 N         140.4237  139.2843  163.5488 N.ar    1  UNL1       -0.1986
      3 C         140.1813  138.1349  162.6158 C.ar    1  UNL1        0.2181
      4 N         141.3255  137.5308  161.8569 N.ar    1  UNL1       -0.2120
      5 C         142.7120  138.0761  162.0309 C.ar    1  UNL1        0.1091
      6 C         142.9544  139.2254  162.9637 C.ar    1  UNL1        0.1040
      7 C         144.3409  139.7706  163.1377 C.2     1  UNL1        0.2470
      8 N         145.2066  139.2750  164.2578 N.am    1  UNL1       -0.3252
      9 O         144.8616  140.8116  162.1914 O.2     1  UNL1       -0.2702
     10 H         144.8649  138.5919  164.8789 H       1  UNL1        0.1453
     11 H         146.1167  139.6329  164.3720 H       1  UNL1        0.1453
     12 N         142.0526  140.9788  164.6556 N.pl3   1  UNL1       -0.2977
     13 H         142.5467  140.8358  165.4950 H       1  UNL1        0.1536
     14 C         138.7602  144.9048  165.5198 C.3     1  UNL1        0.0311
     15 C         139.8959  144.3092  164.7417 C.ar    1  UNL1       -0.0206
     16 C         140.5210  145.0809  163.6175 C.ar    1  UNL1       -0.0042
     17 C         141.6566  144.4852  162.8394 C.ar    1  UNL1        0.0009
     18 C         142.1672  143.1179  163.1854 C.ar    1  UNL1        0.0146
     19 C         141.5420  142.3462  164.3095 C.ar    1  UNL1        0.0491
     20 C         140.4064  142.9419  165.0876 C.ar    1  UNL1        0.0104
     21 N         138.7948  137.5896  162.4419 N.pl3   1  UNL1       -0.3016
     22 H         138.5767  136.6864  162.7672 H       1  UNL1        0.1497
     23 C         137.7406  138.4206  161.7723 C.3     1  UNL1        0.1052
     24 C         137.7849  139.9162  161.8786 C.3     1  UNL1        0.0738
     25 C         138.3094  140.7341  160.7358 C.3     1  UNL1        0.0175
     26 C         138.3536  142.2296  160.8421 C.3     1  UNL1        0.0029
     27 C         137.8735  142.9073  162.0911 C.3     1  UNL1        0.0171
     28 C         137.3490  142.0895  163.2340 C.3     1  UNL1        0.0686
     29 N         137.3047  140.5939  163.1277 N.3     1  UNL1       -0.2972
     30 H         136.3312  140.3182  163.2566 H       1  UNL1        0.1233
@<TRIPOS>BOND
     1    14    15    1
     2    15    16   ar
     3    16    17   ar
     4    17    18   ar
     5    18    19   ar
     6    19    12    1
     7    12     1    1
     8     1     2   ar
     9     2     3   ar
    10     3    21    1
    11    21    23    1
    12    23    24    1
    13    24    25    1
    14    25    26    1
    15    26    27    1
    16    27    28    1
    17    28    29    1
    18     3     4   ar
    19     4     5   ar
    20     5     6   ar
    21     6     7    1
    22     7     8   am
    23     7     9    2
    24    19    20   ar
    25    20    15   ar
    26     6     1   ar
    27    29    24    1
    28    12    13    1
    29    21    22    1
    30    29    30    1
    31     8    10    1
    32     8    11    1
@<TRIPOS>MOLECULE
*****
 30 32 0 0 0
SMALL
GASTEIGER

@<TRIPOS>ATOM
      1 C         143.1247  141.8106  163.9416 C.ar    1  UNL1        0.1409
      2 N         143.2160  140.3650  163.5517 N.ar    1  UNL1       -0.1986
      3 C         144.1818  139.9347  162.4876 C.ar    1  UNL1        0.2181
      4 N         145.0563  140.9500  161.8135 N.ar    1  UNL1       -0.2120
      5 C         144.9650  142.3956  162.2034 C.ar    1  UNL1        0.1091
      6 C         143.9992  142.8259  163.2674 C.ar    1  UNL1        0.1040
      7 C         143.9080  144.2714  163.6573 C.2     1  UNL1        0.2470
      8 N         143.4680  145.2933  162.6511 N.am    1  UNL1       -0.3252
      9 O         144.2567  144.6952  165.0533 O.2     1  UNL1       -0.2702
     10 H         143.2392  145.0151  161.7349 H       1  UNL1        0.1453
     11 H         143.4082  146.2420  162.9070 H       1  UNL1        0.1453
     12 N         142.1589  142.2409  165.0056 N.pl3   1  UNL1       -0.2977
     13 H         142.3883  142.9865  165.6061 H       1  UNL1        0.1536
     14 C         137.3715  141.2293  163.2571 C.3     1  UNL1        0.0311
     15 C         138.4500  141.0294  164.2803 C.ar    1  UNL1       -0.0206
     16 C         138.2133  140.1238  165.4524 C.ar    1  UNL1       -0.0042
     17 C         139.2918  139.9239  166.4755 C.ar    1  UNL1        0.0009
     18 C         140.6070  140.6296  166.3266 C.ar    1  UNL1        0.0146
     19 C         140.8437  141.5352  165.1545 C.ar    1  UNL1        0.0491
     20 C         139.7652  141.7351  164.1314 C.ar    1  UNL1        0.0104
     21 N         144.2730  138.4892  162.0978 N.pl3   1  UNL1       -0.3016
     22 H         145.0228  137.9387  162.4204 H       1  UNL1        0.1497
     23 C         143.2219  137.8823  161.2164 C.3     1  UNL1        0.1052
     24 C         141.7872  137.8774  161.6543 C.3     1  UNL1        0.0738
     25 C         141.4294  137.4481  163.0463 C.3     1  UNL1        0.0175
     26 C         139.9948  137.4432  163.4842 C.3     1  UNL1        0.0029
     27 C         138.9179  137.8677  162.5302 C.3     1  UNL1        0.0171
     28 C         139.2757  138.2970  161.1381 C.3     1  UNL1        0.0686
     29 N         140.7104  138.3019  160.7002 N.3     1  UNL1       -0.2972
     30 H         140.9283  139.2570  160.4162 H       1  UNL1        0.1233
@<TRIPOS>BOND
     1    14    15    1
     2    15    16   ar
     3    16    17   ar
     4    17    18   ar
     5    18    19   ar
     6    19    12    1
     7    12     1    1
     8     1     2   ar
     9     2     3   ar
    10     3    21    1
    11    21    23    1
    12    23    24    1
    13    24    25    1
    14    25    26    1
    15    26    27    1
    16    27    28    1
    17    28    29    1
    18     3     4   ar
    19     4     5   ar
    20     5     6   ar
    21     6     7    1
    22     7     8   am
    23     7     9    2
    24    19    20   ar
    25    20    15   ar
    26     6     1   ar
    27    29    24    1
    28    12    13    1
    29    21    22    1
    30    29    30    1
    31     8    10    1
    32     8    11    1
