@<TRIPOS>MOLECULE
*****
 40 45 0 0 0
SMALL
GASTEIGER

@<TRIPOS>ATOM
      1 C         141.7525  144.4165  158.8962 C.3     1  UNL1        0.0832
      2 C         142.2722  145.6168  158.1619 C.3     1  UNL1        0.0374
      3 C         141.5925  146.0813  156.9081 C.3     1  UNL1        0.0738
      4 N         140.3930  145.3456  156.3886 N.3     1  UNL1       -0.2722
      5 C         139.8733  144.1453  157.1228 C.3     1  UNL1        0.0829
      6 C         140.5530  143.6808  158.3766 C.3     1  UNL1        0.1103
      7 O         140.6835  145.2404  161.5754 O.2     1  UNL1       -0.2684
      8 C         141.8977  144.3638  161.4897 C.2     1  UNL1        0.2669
      9 N         142.4323  143.9519  160.1501 N.am    1  UNL1       -0.3006
     10 H         143.2292  143.3766  160.0938 H       1  UNL1        0.1497
     11 C         142.5774  143.8993  162.7435 C.ar    1  UNL1        0.1761
     12 C         142.0789  142.8332  163.6736 C.ar    1  UNL1        0.0673
     13 C         143.0683  142.6943  164.7924 C.ar    1  UNL1        0.1792
     14 O         144.1785  143.6745  164.5537 O.2     1  UNL1       -0.3532
     15 N         143.8750  144.4192  163.2874 N.ar    1  UNL1       -0.0723
     16 C         142.9658  141.7424  165.9470 C.ar    1  UNL1        0.0648
     17 C         142.8158  142.2701  167.3431 C.ar    1  UNL1        0.0077
     18 C         142.7132  141.3182  168.4977 C.ar    1  UNL1        0.0299
     19 C         142.7606  139.8385  168.2563 C.ar    1  UNL1        0.1424
     20 F         142.6580  138.8865  169.4110 F       1  UNL1       -0.2041
     21 C         142.9106  139.3108  166.8603 C.ar    1  UNL1        0.0593
     22 C         143.0132  140.2627  165.7057 C.ar    1  UNL1        0.1453
     23 F         143.1632  139.7350  164.3096 F       1  UNL1       -0.2040
     24 C         140.0333  142.4804  159.1110 C.2     1  UNL1        0.2252
     25 O         140.9630  141.3586  159.4674 O.2     1  UNL1       -0.2750
     26 N         138.5838  142.4020  159.4889 N.am    1  UNL1       -0.3010
     27 H         137.9736  143.1383  159.2549 H       1  UNL1        0.1497
     28 C         138.0640  141.2018  160.2232 C.3     1  UNL1        0.1089
     29 C         137.5684  139.8085  160.4742 C.3     1  UNL1        0.0274
     30 C         137.9528  140.2291  159.0866 C.3     1  UNL1        0.0274
     31 C         137.9947  141.7575  161.6146 C.ar    1  UNL1        0.1549
     32 N         138.1512  140.8455  162.7952 N.ar    1  UNL1       -0.2276
     33 C         138.0819  141.4012  164.1868 C.ar    1  UNL1        0.1019
     34 C         137.8561  142.8690  164.3977 C.ar    1  UNL1        0.0413
     35 C         137.6996  143.7811  163.2172 C.ar    1  UNL1        0.1019
     36 N         137.7689  143.2254  161.8256 N.ar    1  UNL1       -0.2276
     37 C         139.7132  145.8102  155.1347 C.3     1  UNL1        0.0721
     38 C         139.6052  147.2768  154.8394 C.3     1  UNL1        0.0160
     39 C         139.0667  148.6345  155.1811 C.3     1  UNL1        0.0014
     40 C         139.9566  148.4595  153.9864 C.3     1  UNL1        0.0014
@<TRIPOS>BOND
     1     7     8    2
     2     8     9   am
     3     1     9    1
     4     1     2    1
     5     2     3    1
     6     3     4    1
     7     4    37    1
     8    37    38    1
     9    38    39    1
    10    39    40    1
    11     4     5    1
    12     5     6    1
    13     6    24    1
    14    24    25    2
    15    24    26   am
    16    26    28    1
    17    28    31    1
    18    31    32   ar
    19    32    33   ar
    20    33    34   ar
    21    34    35   ar
    22    35    36   ar
    23    28    29    1
    24    29    30    1
    25     8    11    1
    26    11    12   ar
    27    12    13   ar
    28    13    16    1
    29    16    17   ar
    30    17    18   ar
    31    18    19   ar
    32    19    20    1
    33    19    21   ar
    34    21    22   ar
    35    22    23    1
    36    13    14   ar
    37    14    15   ar
    38     6     1    1
    39    30    28    1
    40    15    11   ar
    41    40    38    1
    42    36    31   ar
    43    22    16   ar
    44     9    10    1
    45    26    27    1
@<TRIPOS>MOLECULE
*****
 40 45 0 0 0
SMALL
GASTEIGER

@<TRIPOS>ATOM
      1 C         141.1943  143.7780  160.7877 C.3     1  UNL1        0.0832
      2 C         140.9631  145.2026  160.3788 C.3     1  UNL1        0.0374
      3 C         140.7790  145.5466  158.9305 C.3     1  UNL1        0.0738
      4 N         140.8261  144.4662  157.8911 N.3     1  UNL1       -0.2722
      5 C         141.0572  143.0417  158.2999 C.3     1  UNL1        0.0829
      6 C         141.2413  142.6976  159.7483 C.3     1  UNL1        0.1103
      7 O         143.9093  143.9892  162.0462 O.2     1  UNL1       -0.2684
      8 C         142.7359  143.5395  162.8653 C.2     1  UNL1        0.2669
      9 N         141.3784  143.4339  162.2361 N.am    1  UNL1       -0.3006
     10 H         140.6082  143.1387  162.7737 H       1  UNL1        0.1497
     11 C         142.9201  143.1953  164.3136 C.ar    1  UNL1        0.1761
     12 C         141.9516  142.4333  165.1688 C.ar    1  UNL1        0.0673
     13 C         142.5380  142.3198  166.5448 C.ar    1  UNL1        0.1792
     14 O         143.8689  143.0118  166.5399 O.2     1  UNL1       -0.3532
     15 N         144.1050  143.5529  165.1610 N.ar    1  UNL1       -0.0723
     16 C         141.9047  141.6347  167.7193 C.ar    1  UNL1        0.0648
     17 C         142.4555  140.3296  168.2129 C.ar    1  UNL1        0.0077
     18 C         141.8222  139.6445  169.3874 C.ar    1  UNL1        0.0299
     19 C         140.6382  140.2645  170.0684 C.ar    1  UNL1        0.1424
     20 F         140.0050  139.5794  171.2430 F       1  UNL1       -0.2041
     21 C         140.0875  141.5694  169.5749 C.ar    1  UNL1        0.0593
     22 C         140.7208  142.2545  168.4004 C.ar    1  UNL1        0.1453
     23 F         140.1700  143.5596  167.9069 F       1  UNL1       -0.2040
     24 C         141.4725  141.2730  160.1572 C.2     1  UNL1        0.2252
     25 O         140.3814  140.5020  160.8391 O.2     1  UNL1       -0.2750
     26 N         142.7948  140.6195  159.8842 N.am    1  UNL1       -0.3010
     27 H         143.5109  141.1255  159.4366 H       1  UNL1        0.1497
     28 C         143.0260  139.1950  160.2931 C.3     1  UNL1        0.1089
     29 C         143.0873  137.6983  160.2149 C.3     1  UNL1        0.0274
     30 C         142.6171  138.4925  159.0324 C.3     1  UNL1        0.0274
     31 C         143.5151  139.4027  161.6958 C.ar    1  UNL1        0.1549
     32 N         144.6255  140.3741  161.9667 N.ar    1  UNL1       -0.2276
     33 C         145.1147  140.5818  163.3695 C.ar    1  UNL1        0.1019
     34 C         144.4934  139.8182  164.5012 C.ar    1  UNL1        0.0413
     35 C         143.3830  138.8469  164.2302 C.ar    1  UNL1        0.1019
     36 N         142.8938  138.6391  162.8276 N.ar    1  UNL1       -0.2276
     37 C         140.6420  144.8103  156.4427 C.3     1  UNL1        0.0721
     38 C         139.6653  145.8765  156.0434 C.3     1  UNL1        0.0160
     39 C         138.4776  146.3147  155.2389 C.3     1  UNL1        0.0014
     40 C         139.1613  147.2847  156.1563 C.3     1  UNL1        0.0014
@<TRIPOS>BOND
     1     7     8    2
     2     8     9   am
     3     1     9    1
     4     1     2    1
     5     2     3    1
     6     3     4    1
     7     4    37    1
     8    37    38    1
     9    38    39    1
    10    39    40    1
    11     4     5    1
    12     5     6    1
    13     6    24    1
    14    24    25    2
    15    24    26   am
    16    26    28    1
    17    28    31    1
    18    31    32   ar
    19    32    33   ar
    20    33    34   ar
    21    34    35   ar
    22    35    36   ar
    23    28    29    1
    24    29    30    1
    25     8    11    1
    26    11    12   ar
    27    12    13   ar
    28    13    16    1
    29    16    17   ar
    30    17    18   ar
    31    18    19   ar
    32    19    20    1
    33    19    21   ar
    34    21    22   ar
    35    22    23    1
    36    13    14   ar
    37    14    15   ar
    38     6     1    1
    39    30    28    1
    40    15    11   ar
    41    40    38    1
    42    36    31   ar
    43    22    16   ar
    44     9    10    1
    45    26    27    1
@<TRIPOS>MOLECULE
*****
 40 45 0 0 0
SMALL
GASTEIGER

@<TRIPOS>ATOM
      1 C         142.3683  139.0323  161.4227 C.3     1  UNL1        0.0832
      2 C         142.6665  137.6717  160.8663 C.3     1  UNL1        0.0374
      3 C         142.9321  137.5028  159.3998 C.3     1  UNL1        0.0738
      4 N         142.8996  138.6947  158.4896 N.3     1  UNL1       -0.2722
      5 C         142.6014  140.0554  159.0460 C.3     1  UNL1        0.0829
      6 C         142.3358  140.2242  160.5125 C.3     1  UNL1        0.1103
      7 O         144.6479  139.0050  163.3728 O.2     1  UNL1       -0.2684
      8 C         143.2425  139.1876  163.8644 C.2     1  UNL1        0.2669
      9 N         142.1027  139.2012  162.8894 N.am    1  UNL1       -0.3006
     10 H         141.1803  139.3210  163.2120 H       1  UNL1        0.1497
     11 C         142.9769  139.3564  165.3310 C.ar    1  UNL1        0.1761
     12 C         142.0781  140.3845  165.9517 C.ar    1  UNL1        0.0673
     13 C         142.1092  140.1904  167.4387 C.ar    1  UNL1        0.1792
     14 O         143.0273  139.0422  167.7371 O.2     1  UNL1       -0.3532
     15 N         143.5635  138.5269  166.4345 N.ar    1  UNL1       -0.0723
     16 C         141.3547  141.0018  168.4498 C.ar    1  UNL1        0.0648
     17 C         140.0502  140.4986  168.9929 C.ar    1  UNL1        0.0077
     18 C         139.2957  141.3100  170.0040 C.ar    1  UNL1        0.0299
     19 C         139.8458  142.6247  170.4720 C.ar    1  UNL1        0.1424
     20 F         139.0914  143.4361  171.4831 F       1  UNL1       -0.2041
     21 C         141.1503  143.1279  169.9289 C.ar    1  UNL1        0.0593
     22 C         141.9048  142.3164  168.9178 C.ar    1  UNL1        0.1453
     23 F         143.2093  142.8197  168.3747 F       1  UNL1       -0.2040
     24 C         142.0376  141.5849  161.0690 C.2     1  UNL1        0.2252
     25 O         142.9024  142.1582  162.1523 O.2     1  UNL1       -0.2750
     26 N         140.8747  142.3723  160.5422 N.am    1  UNL1       -0.3010
     27 H         140.3071  141.9960  159.8312 H       1  UNL1        0.1497
     28 C         140.5765  143.7330  161.0986 C.3     1  UNL1        0.1089
     29 C         140.5996  145.2234  161.2660 C.3     1  UNL1        0.0274
     30 C         141.3981  144.5792  160.1717 C.3     1  UNL1        0.0274
     31 C         139.6514  143.3594  162.2186 C.ar    1  UNL1        0.1549
     32 N         138.4121  142.5636  161.9340 N.ar    1  UNL1       -0.2276
     33 C         137.4869  142.1900  163.0541 C.ar    1  UNL1        0.1019
     34 C         137.8011  142.6122  164.4587 C.ar    1  UNL1        0.0413
     35 C         139.0403  143.4079  164.7433 C.ar    1  UNL1        0.1019
     36 N         139.9655  143.7816  163.6233 N.ar    1  UNL1       -0.2276
     37 C         143.1652  138.5258  157.0229 C.3     1  UNL1        0.0721
     38 C         143.2998  137.1509  156.4385 C.3     1  UNL1        0.0160
     39 C         143.9952  136.1937  155.5166 C.3     1  UNL1        0.0014
     40 C         142.8376  135.7268  156.3483 C.3     1  UNL1        0.0014
@<TRIPOS>BOND
     1     7     8    2
     2     8     9   am
     3     1     9    1
     4     1     2    1
     5     2     3    1
     6     3     4    1
     7     4    37    1
     8    37    38    1
     9    38    39    1
    10    39    40    1
    11     4     5    1
    12     5     6    1
    13     6    24    1
    14    24    25    2
    15    24    26   am
    16    26    28    1
    17    28    31    1
    18    31    32   ar
    19    32    33   ar
    20    33    34   ar
    21    34    35   ar
    22    35    36   ar
    23    28    29    1
    24    29    30    1
    25     8    11    1
    26    11    12   ar
    27    12    13   ar
    28    13    16    1
    29    16    17   ar
    30    17    18   ar
    31    18    19   ar
    32    19    20    1
    33    19    21   ar
    34    21    22   ar
    35    22    23    1
    36    13    14   ar
    37    14    15   ar
    38     6     1    1
    39    30    28    1
    40    15    11   ar
    41    40    38    1
    42    36    31   ar
    43    22    16   ar
    44     9    10    1
    45    26    27    1
@<TRIPOS>MOLECULE
*****
 40 45 0 0 0
SMALL
GASTEIGER

@<TRIPOS>ATOM
      1 C         142.2218  139.4201  164.6661 C.3     1  UNL1        0.0832
      2 C         143.0321  138.5010  165.5312 C.3     1  UNL1        0.0374
      3 C         143.1488  138.7655  167.0031 C.3     1  UNL1        0.0738
      4 N         142.4552  139.9491  167.6098 N.3     1  UNL1       -0.2722
      5 C         141.6448  140.8681  166.7446 C.3     1  UNL1        0.0829
      6 C         141.5281  140.6036  165.2727 C.3     1  UNL1        0.1103
      7 O         144.5076  140.0781  162.8379 O.2     1  UNL1       -0.2684
      8 C         143.2479  139.4846  162.2801 C.2     1  UNL1        0.2669
      9 N         142.1050  139.1556  163.1941 N.am    1  UNL1       -0.3006
     10 H         141.2783  138.7661  162.8280 H       1  UNL1        0.1497
     11 C         143.1312  139.2202  160.8082 C.ar    1  UNL1        0.1761
     12 C         141.8894  138.7891  160.0856 C.ar    1  UNL1        0.0673
     13 C         142.2265  138.6429  158.6313 C.ar    1  UNL1        0.1792
     14 O         143.6767  138.9836  158.4551 O.2     1  UNL1       -0.3532
     15 N         144.2358  139.3404  159.8006 N.ar    1  UNL1       -0.0723
     16 C         141.2798  138.2288  157.5441 C.ar    1  UNL1        0.0648
     17 C         140.1123  139.1028  157.1930 C.ar    1  UNL1        0.0077
     18 C         139.1656  138.6886  156.1057 C.ar    1  UNL1        0.0299
     19 C         139.3862  137.4004  155.3696 C.ar    1  UNL1        0.1424
     20 F         138.4395  136.9863  154.2824 F       1  UNL1       -0.2041
     21 C         140.5536  136.5265  155.7207 C.ar    1  UNL1        0.0593
     22 C         141.5003  136.9406  156.8079 C.ar    1  UNL1        0.1453
     23 F         142.6678  136.0666  157.1590 F       1  UNL1       -0.2040
     24 C         140.7177  141.5227  164.4075 C.2     1  UNL1        0.2252
     25 O         141.3937  142.3564  163.3596 O.2     1  UNL1       -0.2750
     26 N         139.2313  141.6081  164.5901 N.am    1  UNL1       -0.3010
     27 H         138.7876  141.0609  165.2779 H       1  UNL1        0.1497
     28 C         138.4209  142.5271  163.7250 C.3     1  UNL1        0.1089
     29 C         137.6701  143.7473  163.2806 C.3     1  UNL1        0.0274
     30 C         138.3113  143.7135  164.6363 C.3     1  UNL1        0.0274
     31 C         138.2490  141.6600  162.5132 C.ar    1  UNL1        0.1549
     32 N         138.5276  142.2153  161.1479 N.ar    1  UNL1       -0.2276
     33 C         138.3558  141.3481  159.9360 C.ar    1  UNL1        0.1019
     34 C         137.9054  139.9256  160.0895 C.ar    1  UNL1        0.0413
     35 C         137.6268  139.3703  161.4548 C.ar    1  UNL1        0.1019
     36 N         137.7986  140.2374  162.6666 N.ar    1  UNL1       -0.2276
     37 C         142.5719  140.2135  169.0817 C.3     1  UNL1        0.0721
     38 C         143.0176  141.5604  169.5687 C.3     1  UNL1        0.0160
     39 C         142.6914  142.9088  170.1391 C.3     1  UNL1        0.0014
     40 C         144.1158  142.5450  169.8417 C.3     1  UNL1        0.0014
@<TRIPOS>BOND
     1     7     8    2
     2     8     9   am
     3     1     9    1
     4     1     2    1
     5     2     3    1
     6     3     4    1
     7     4    37    1
     8    37    38    1
     9    38    39    1
    10    39    40    1
    11     4     5    1
    12     5     6    1
    13     6    24    1
    14    24    25    2
    15    24    26   am
    16    26    28    1
    17    28    31    1
    18    31    32   ar
    19    32    33   ar
    20    33    34   ar
    21    34    35   ar
    22    35    36   ar
    23    28    29    1
    24    29    30    1
    25     8    11    1
    26    11    12   ar
    27    12    13   ar
    28    13    16    1
    29    16    17   ar
    30    17    18   ar
    31    18    19   ar
    32    19    20    1
    33    19    21   ar
    34    21    22   ar
    35    22    23    1
    36    13    14   ar
    37    14    15   ar
    38     6     1    1
    39    30    28    1
    40    15    11   ar
    41    40    38    1
    42    36    31   ar
    43    22    16   ar
    44     9    10    1
    45    26    27    1
@<TRIPOS>MOLECULE
*****
 40 45 0 0 0
SMALL
GASTEIGER

@<TRIPOS>ATOM
      1 C         139.4191  140.2013  164.5761 C.3     1  UNL1        0.0832
      2 C         138.4401  139.4051  165.3869 C.3     1  UNL1        0.0374
      3 C         138.5400  139.3934  166.8835 C.3     1  UNL1        0.0738
      4 N         139.6190  140.1779  167.5693 N.3     1  UNL1       -0.2722
      5 C         140.5981  140.9741  166.7585 C.3     1  UNL1        0.0829
      6 C         140.4981  140.9858  165.2619 C.3     1  UNL1        0.1103
      7 O         137.2058  141.7166  163.2325 O.2     1  UNL1       -0.2684
      8 C         138.2126  140.9707  162.4076 C.2     1  UNL1        0.2669
      9 N         139.3192  140.2131  163.0794 N.am    1  UNL1       -0.3006
     10 H         139.9799  139.7236  162.5381 H       1  UNL1        0.1497
     11 C         138.1126  140.9825  160.9110 C.ar    1  UNL1        0.1761
     12 C         138.5421  142.1001  160.0074 C.ar    1  UNL1        0.0673
     13 C         138.2606  141.6871  158.5932 C.ar    1  UNL1        0.1792
     14 O         137.6570  140.3141  158.6227 O.2     1  UNL1       -0.3532
     15 N         137.5656  139.8787  160.0552 N.ar    1  UNL1       -0.0723
     16 C         138.5344  142.5036  157.3651 C.ar    1  UNL1        0.0648
     17 C         139.8379  143.2323  157.2242 C.ar    1  UNL1        0.0077
     18 C         140.1118  144.0488  155.9961 C.ar    1  UNL1        0.0299
     19 C         139.0821  144.1366  154.9088 C.ar    1  UNL1        0.1424
     20 F         139.3560  144.9531  153.6807 F       1  UNL1       -0.2041
     21 C         137.7787  143.4079  155.0497 C.ar    1  UNL1        0.0593
     22 C         137.5048  142.5914  156.2778 C.ar    1  UNL1        0.1453
     23 F         136.2013  141.8627  156.4187 F       1  UNL1       -0.2040
     24 C         141.4772  141.7821  164.4510 C.2     1  UNL1        0.2252
     25 O         142.2242  141.1302  163.3254 O.2     1  UNL1       -0.2750
     26 N         141.7093  143.2302  164.7659 N.am    1  UNL1       -0.3010
     27 H         141.2190  143.6580  165.5047 H       1  UNL1        0.1497
     28 C         142.6883  144.0264  163.9551 C.3     1  UNL1        0.1089
     29 C         143.9830  144.6456  163.5188 C.3     1  UNL1        0.0274
     30 C         143.9374  143.7929  164.7521 C.3     1  UNL1        0.0274
     31 C         141.7793  144.5365  162.8764 C.ar    1  UNL1        0.1549
     32 N         140.4349  145.0986  163.2322 N.ar    1  UNL1       -0.2276
     33 C         139.5258  145.6087  162.1536 C.ar    1  UNL1        0.1019
     34 C         139.9612  145.5566  160.7191 C.ar    1  UNL1        0.0413
     35 C         141.3055  144.9945  160.3633 C.ar    1  UNL1        0.1019
     36 N         142.2146  144.4844  161.4419 N.ar    1  UNL1       -0.2276
     37 C         139.7189  140.1661  169.0660 C.3     1  UNL1        0.0721
     38 C         141.0518  139.9762  169.7272 C.3     1  UNL1        0.0160
     39 C         142.0954  140.4351  170.7021 C.3     1  UNL1        0.0014
     40 C         142.3169  139.1886  169.8976 C.3     1  UNL1        0.0014
@<TRIPOS>BOND
     1     7     8    2
     2     8     9   am
     3     1     9    1
     4     1     2    1
     5     2     3    1
     6     3     4    1
     7     4    37    1
     8    37    38    1
     9    38    39    1
    10    39    40    1
    11     4     5    1
    12     5     6    1
    13     6    24    1
    14    24    25    2
    15    24    26   am
    16    26    28    1
    17    28    31    1
    18    31    32   ar
    19    32    33   ar
    20    33    34   ar
    21    34    35   ar
    22    35    36   ar
    23    28    29    1
    24    29    30    1
    25     8    11    1
    26    11    12   ar
    27    12    13   ar
    28    13    16    1
    29    16    17   ar
    30    17    18   ar
    31    18    19   ar
    32    19    20    1
    33    19    21   ar
    34    21    22   ar
    35    22    23    1
    36    13    14   ar
    37    14    15   ar
    38     6     1    1
    39    30    28    1
    40    15    11   ar
    41    40    38    1
    42    36    31   ar
    43    22    16   ar
    44     9    10    1
    45    26    27    1
@<TRIPOS>MOLECULE
*****
 40 45 0 0 0
SMALL
GASTEIGER

@<TRIPOS>ATOM
      1 C         142.3213  139.3820  164.5029 C.3     1  UNL1        0.0832
      2 C         143.1323  138.4703  165.3752 C.3     1  UNL1        0.0374
      3 C         143.2090  138.7182  166.8525 C.3     1  UNL1        0.0738
      4 N         142.4746  139.8777  167.4576 N.3     1  UNL1       -0.2722
      5 C         141.6635  140.7894  166.5853 C.3     1  UNL1        0.0829
      6 C         141.5869  140.5416  165.1079 C.3     1  UNL1        0.1103
      7 O         144.6577  140.0554  162.7457 O.2     1  UNL1       -0.2684
      8 C         143.4128  139.4709  162.1469 C.2     1  UNL1        0.2669
      9 N         142.2446  139.1342  163.0254 N.am    1  UNL1       -0.3006
     10 H         141.4275  138.7506  162.6324 H       1  UNL1        0.1497
     11 C         143.3361  139.2231  160.6695 C.ar    1  UNL1        0.1761
     12 C         142.6776  138.0505  160.0051 C.ar    1  UNL1        0.0673
     13 C         142.8390  138.2071  158.5221 C.ar    1  UNL1        0.1792
     14 O         143.5974  139.4765  158.2699 O.2     1  UNL1       -0.3532
     15 N         143.9046  140.1044  159.5970 N.ar    1  UNL1       -0.0723
     16 C         142.3313  137.2605  157.4751 C.ar    1  UNL1        0.0648
     17 C         143.1157  136.0282  157.1343 C.ar    1  UNL1        0.0077
     18 C         142.6080  135.0817  156.0873 C.ar    1  UNL1        0.0299
     19 C         141.3158  135.3674  155.3812 C.ar    1  UNL1        0.1424
     20 F         140.8081  134.4208  154.3342 F       1  UNL1       -0.2041
     21 C         140.5315  136.5996  155.7219 C.ar    1  UNL1        0.0593
     22 C         141.0392  137.5462  156.7689 C.ar    1  UNL1        0.1453
     23 F         140.2548  138.7785  157.1097 F       1  UNL1       -0.2040
     24 C         140.7758  141.4533  164.2356 C.2     1  UNL1        0.2252
     25 O         141.4475  142.2588  163.1632 O.2     1  UNL1       -0.2750
     26 N         139.2930  141.5595  164.4356 N.am    1  UNL1       -0.3010
     27 H         138.8521  141.0309  165.1395 H       1  UNL1        0.1497
     28 C         138.4819  142.4712  163.5633 C.3     1  UNL1        0.1089
     29 C         137.7326  143.6884  163.1084 C.3     1  UNL1        0.0274
     30 C         138.3781  143.6676  164.4623 C.3     1  UNL1        0.0274
     31 C         138.3040  141.5916  162.3615 C.ar    1  UNL1        0.1549
     32 N         137.8359  140.1765  162.5305 N.ar    1  UNL1       -0.2276
     33 C         137.6579  139.2967  161.3286 C.ar    1  UNL1        0.1019
     34 C         137.9481  139.8321  159.9578 C.ar    1  UNL1        0.0413
     35 C         138.4162  141.2472  159.7888 C.ar    1  UNL1        0.1019
     36 N         138.5941  142.1269  160.9906 N.ar    1  UNL1       -0.2276
     37 C         142.5513  140.1256  168.9350 C.3     1  UNL1        0.0721
     38 C         142.9561  141.4753  169.4491 C.3     1  UNL1        0.0160
     39 C         144.0278  142.4413  169.8592 C.3     1  UNL1        0.0014
     40 C         142.5855  142.8471  169.9294 C.3     1  UNL1        0.0014
@<TRIPOS>BOND
     1     7     8    2
     2     8     9   am
     3     1     9    1
     4     1     2    1
     5     2     3    1
     6     3     4    1
     7     4    37    1
     8    37    38    1
     9    38    39    1
    10    39    40    1
    11     4     5    1
    12     5     6    1
    13     6    24    1
    14    24    25    2
    15    24    26   am
    16    26    28    1
    17    28    31    1
    18    31    32   ar
    19    32    33   ar
    20    33    34   ar
    21    34    35   ar
    22    35    36   ar
    23    28    29    1
    24    29    30    1
    25     8    11    1
    26    11    12   ar
    27    12    13   ar
    28    13    16    1
    29    16    17   ar
    30    17    18   ar
    31    18    19   ar
    32    19    20    1
    33    19    21   ar
    34    21    22   ar
    35    22    23    1
    36    13    14   ar
    37    14    15   ar
    38     6     1    1
    39    30    28    1
    40    15    11   ar
    41    40    38    1
    42    36    31   ar
    43    22    16   ar
    44     9    10    1
    45    26    27    1
@<TRIPOS>MOLECULE
*****
 40 45 0 0 0
SMALL
GASTEIGER

@<TRIPOS>ATOM
      1 C         141.7828  142.1129  160.2641 C.3     1  UNL1        0.0832
      2 C         141.4857  143.4607  159.6767 C.3     1  UNL1        0.0374
      3 C         140.7709  144.4945  160.4954 C.3     1  UNL1        0.0738
      4 N         140.3532  144.1805  161.9014 N.3     1  UNL1       -0.2722
      5 C         140.6503  142.8326  162.4888 C.3     1  UNL1        0.0829
      6 C         141.3651  141.7988  161.6701 C.3     1  UNL1        0.1103
      7 O         140.2141  140.0681  158.7283 O.2     1  UNL1       -0.2684
      8 C         141.7133  140.0566  158.6775 C.2     1  UNL1        0.2669
      9 N         142.4976  141.0790  159.4454 N.am    1  UNL1       -0.3006
     10 H         143.4815  141.0715  159.4120 H       1  UNL1        0.1497
     11 C         142.4280  139.0228  157.8589 C.ar    1  UNL1        0.1761
     12 C         141.9384  137.6350  157.5685 C.ar    1  UNL1        0.0673
     13 C         142.9657  136.9497  156.7170 C.ar    1  UNL1        0.1792
     14 O         144.0902  137.9140  156.4811 O.2     1  UNL1       -0.3532
     15 N         143.7579  139.1952  157.1868 N.ar    1  UNL1       -0.0723
     16 C         142.8830  135.5465  156.1933 C.ar    1  UNL1        0.0648
     17 C         142.5406  135.3023  154.7534 C.ar    1  UNL1        0.0077
     18 C         142.4579  133.8991  154.2298 C.ar    1  UNL1        0.0299
     19 C         142.7176  132.7402  155.1460 C.ar    1  UNL1        0.1424
     20 F         142.6349  131.3370  154.6223 F       1  UNL1       -0.2041
     21 C         143.0599  132.9844  156.5857 C.ar    1  UNL1        0.0593
     22 C         143.1426  134.3876  157.1094 C.ar    1  UNL1        0.1453
     23 F         143.4849  134.6318  158.5493 F       1  UNL1       -0.2040
     24 C         141.6622  140.4509  162.2574 C.2     1  UNL1        0.2252
     25 O         142.9915  139.8015  162.0101 O.2     1  UNL1       -0.2750
     26 N         140.6300  139.7524  163.0921 N.am    1  UNL1       -0.3010
     27 H         139.7575  140.1787  163.2544 H       1  UNL1        0.1497
     28 C         140.9270  138.4046  163.6794 C.3     1  UNL1        0.1089
     29 C         141.0382  136.9137  163.8016 C.3     1  UNL1        0.0274
     30 C         140.4950  137.5247  162.5439 C.3     1  UNL1        0.0274
     31 C         141.4622  138.8163  165.0188 C.ar    1  UNL1        0.1549
     32 N         142.7913  138.3011  165.4860 N.ar    1  UNL1       -0.2276
     33 C         143.3265  138.7128  166.8255 C.ar    1  UNL1        0.1019
     34 C         142.5327  139.6396  167.6977 C.ar    1  UNL1        0.0413
     35 C         141.2036  140.1548  167.2305 C.ar    1  UNL1        0.1019
     36 N         140.6684  139.7431  165.8910 N.ar    1  UNL1       -0.2276
     37 C         139.6383  145.2143  162.7201 C.3     1  UNL1        0.0721
     38 C         138.8961  144.8085  163.9588 C.3     1  UNL1        0.0160
     39 C         137.7778  144.0540  164.6145 C.3     1  UNL1        0.0014
     40 C         138.7289  144.8600  165.4485 C.3     1  UNL1        0.0014
@<TRIPOS>BOND
     1     7     8    2
     2     8     9   am
     3     1     9    1
     4     1     2    1
     5     2     3    1
     6     3     4    1
     7     4    37    1
     8    37    38    1
     9    38    39    1
    10    39    40    1
    11     4     5    1
    12     5     6    1
    13     6    24    1
    14    24    25    2
    15    24    26   am
    16    26    28    1
    17    28    31    1
    18    31    32   ar
    19    32    33   ar
    20    33    34   ar
    21    34    35   ar
    22    35    36   ar
    23    28    29    1
    24    29    30    1
    25     8    11    1
    26    11    12   ar
    27    12    13   ar
    28    13    16    1
    29    16    17   ar
    30    17    18   ar
    31    18    19   ar
    32    19    20    1
    33    19    21   ar
    34    21    22   ar
    35    22    23    1
    36    13    14   ar
    37    14    15   ar
    38     6     1    1
    39    30    28    1
    40    15    11   ar
    41    40    38    1
    42    36    31   ar
    43    22    16   ar
    44     9    10    1
    45    26    27    1
@<TRIPOS>MOLECULE
*****
 40 45 0 0 0
SMALL
GASTEIGER

@<TRIPOS>ATOM
      1 C         139.3991  140.2466  164.6003 C.3     1  UNL1        0.0832
      2 C         138.4074  139.4585  165.4036 C.3     1  UNL1        0.0374
      3 C         138.4933  139.4494  166.9010 C.3     1  UNL1        0.0738
      4 N         139.5709  140.2284  167.5953 N.3     1  UNL1       -0.2722
      5 C         140.5626  141.0165  166.7920 C.3     1  UNL1        0.0829
      6 C         140.4767  141.0256  165.2945 C.3     1  UNL1        0.1103
      7 O         137.1768  141.7283  163.2343 O.2     1  UNL1       -0.2684
      8 C         138.2021  140.9966  162.4197 C.2     1  UNL1        0.2669
      9 N         139.3133  140.2558  163.1027 N.am    1  UNL1       -0.3006
     10 H         139.9863  139.7756  162.5681 H       1  UNL1        0.1497
     11 C         138.1163  141.0058  160.9222 C.ar    1  UNL1        0.1761
     12 C         138.5374  142.1292  160.0218 C.ar    1  UNL1        0.0673
     13 C         138.2756  141.7109  158.6053 C.ar    1  UNL1        0.1792
     14 O         137.6927  140.3290  158.6303 O.2     1  UNL1       -0.3532
     15 N         137.5942  139.8932  160.0622 N.ar    1  UNL1       -0.0723
     16 C         138.5487  142.5306  157.3791 C.ar    1  UNL1        0.0648
     17 C         137.4180  142.9357  156.4806 C.ar    1  UNL1        0.0077
     18 C         137.6912  143.7553  155.2544 C.ar    1  UNL1        0.0299
     19 C         139.0950  144.1699  154.9268 C.ar    1  UNL1        0.1424
     20 F         139.3681  144.9895  153.7006 F       1  UNL1       -0.2041
     21 C         140.2256  143.7648  155.8253 C.ar    1  UNL1        0.0593
     22 C         139.9525  142.9451  157.0515 C.ar    1  UNL1        0.1453
     23 F         141.0832  142.5400  157.9501 F       1  UNL1       -0.2040
     24 C         141.4685  141.8138  164.4912 C.2     1  UNL1        0.2252
     25 O         142.2416  141.1478  163.3918 O.2     1  UNL1       -0.2750
     26 N         141.6871  143.2679  164.7873 N.am    1  UNL1       -0.3010
     27 H         141.1797  143.7050  165.5089 H       1  UNL1        0.1497
     28 C         142.6788  144.0561  163.9840 C.3     1  UNL1        0.1089
     29 C         143.9799  144.6723  163.5630 C.3     1  UNL1        0.0274
     30 C         143.9141  143.8349  164.8057 C.3     1  UNL1        0.0274
     31 C         141.7880  144.5510  162.8834 C.ar    1  UNL1        0.1549
     32 N         140.4533  145.1515  163.2116 N.ar    1  UNL1       -0.2276
     33 C         139.5623  145.6465  162.1109 C.ar    1  UNL1        0.1019
     34 C         140.0063  145.5408  160.6821 C.ar    1  UNL1        0.0413
     35 C         141.3411  144.9403  160.3538 C.ar    1  UNL1        0.1019
     36 N         142.2320  144.4453  161.4544 N.ar    1  UNL1       -0.2276
     37 C         139.6567  140.2192  169.0928 C.3     1  UNL1        0.0721
     38 C         140.1168  141.4447  169.8252 C.3     1  UNL1        0.0160
     39 C         139.8278  142.8000  170.3995 C.3     1  UNL1        0.0014
     40 C         141.2026  142.2122  170.5194 C.3     1  UNL1        0.0014
@<TRIPOS>BOND
     1     7     8    2
     2     8     9   am
     3     1     9    1
     4     1     2    1
     5     2     3    1
     6     3     4    1
     7     4    37    1
     8    37    38    1
     9    38    39    1
    10    39    40    1
    11     4     5    1
    12     5     6    1
    13     6    24    1
    14    24    25    2
    15    24    26   am
    16    26    28    1
    17    28    31    1
    18    31    32   ar
    19    32    33   ar
    20    33    34   ar
    21    34    35   ar
    22    35    36   ar
    23    28    29    1
    24    29    30    1
    25     8    11    1
    26    11    12   ar
    27    12    13   ar
    28    13    16    1
    29    16    17   ar
    30    17    18   ar
    31    18    19   ar
    32    19    20    1
    33    19    21   ar
    34    21    22   ar
    35    22    23    1
    36    13    14   ar
    37    14    15   ar
    38     6     1    1
    39    30    28    1
    40    15    11   ar
    41    40    38    1
    42    36    31   ar
    43    22    16   ar
    44     9    10    1
    45    26    27    1
@<TRIPOS>MOLECULE
*****
 40 45 0 0 0
SMALL
GASTEIGER

@<TRIPOS>ATOM
      1 C         139.9689  139.6566  164.3277 C.3     1  UNL1        0.0832
      2 C         139.0283  138.8797  165.2005 C.3     1  UNL1        0.0374
      3 C         138.9053  139.2169  166.6569 C.3     1  UNL1        0.0738
      4 N         139.7229  140.3309  167.2405 N.3     1  UNL1       -0.2722
      5 C         140.6634  141.1077  166.3677 C.3     1  UNL1        0.0829
      6 C         140.7864  140.7705  164.9113 C.3     1  UNL1        0.1103
      7 O         137.8262  140.5029  162.4060 O.2     1  UNL1       -0.2684
      8 C         139.0206  139.7426  161.9104 C.2     1  UNL1        0.2669
      9 N         140.0919  139.3194  162.8712 N.am    1  UNL1       -0.3006
     10 H         140.8757  138.8204  162.5460 H       1  UNL1        0.1497
     11 C         139.1435  139.4055  160.4540 C.ar    1  UNL1        0.1761
     12 C         140.2183  138.5645  159.8313 C.ar    1  UNL1        0.0673
     13 C         139.9523  138.4895  158.3570 C.ar    1  UNL1        0.1792
     14 O         138.7132  139.2841  158.0685 O.2     1  UNL1       -0.3532
     15 N         138.2134  139.8502  159.3645 N.ar    1  UNL1       -0.0723
     16 C         140.7801  137.7497  157.3483 C.ar    1  UNL1        0.0648
     17 C         142.2737  137.7168  157.4828 C.ar    1  UNL1        0.0077
     18 C         143.1015  136.9771  156.4741 C.ar    1  UNL1        0.0299
     19 C         142.4357  136.2702  155.3309 C.ar    1  UNL1        0.1424
     20 F         143.2635  135.5304  154.3222 F       1  UNL1       -0.2041
     21 C         140.9422  136.3031  155.1964 C.ar    1  UNL1        0.0593
     22 C         140.1144  137.0428  156.2051 C.ar    1  UNL1        0.1453
     23 F         138.6208  137.0757  156.0705 F       1  UNL1       -0.2040
     24 C         141.7270  141.5474  164.0384 C.2     1  UNL1        0.2252
     25 O         142.4033  140.8756  162.8804 O.2     1  UNL1       -0.2750
     26 N         141.9913  142.9961  164.3237 N.am    1  UNL1       -0.3010
     27 H         141.5474  143.4371  165.0838 H       1  UNL1        0.1497
     28 C         142.9318  143.7730  163.4509 C.3     1  UNL1        0.1089
     29 C         144.2142  144.3181  162.8957 C.3     1  UNL1        0.0274
     30 C         144.2427  143.3756  164.0622 C.3     1  UNL1        0.0274
     31 C         141.9476  144.4402  162.5366 C.ar    1  UNL1        0.1549
     32 N         142.1809  144.4397  161.0548 N.ar    1  UNL1       -0.2276
     33 C         141.1966  145.1069  160.1403 C.ar    1  UNL1        0.1019
     34 C         139.9792  145.7747  160.7077 C.ar    1  UNL1        0.0413
     35 C         139.7460  145.7752  162.1894 C.ar    1  UNL1        0.1019
     36 N         140.7301  145.1080  163.1039 N.ar    1  UNL1       -0.2276
     37 C         139.5999  140.6680  168.6970 C.3     1  UNL1        0.0721
     38 C         140.2349  141.9162  169.2342 C.3     1  UNL1        0.0160
     39 C         140.3561  143.4113  169.2441 C.3     1  UNL1        0.0014
     40 C         141.2137  142.5832  170.1545 C.3     1  UNL1        0.0014
@<TRIPOS>BOND
     1     7     8    2
     2     8     9   am
     3     1     9    1
     4     1     2    1
     5     2     3    1
     6     3     4    1
     7     4    37    1
     8    37    38    1
     9    38    39    1
    10    39    40    1
    11     4     5    1
    12     5     6    1
    13     6    24    1
    14    24    25    2
    15    24    26   am
    16    26    28    1
    17    28    31    1
    18    31    32   ar
    19    32    33   ar
    20    33    34   ar
    21    34    35   ar
    22    35    36   ar
    23    28    29    1
    24    29    30    1
    25     8    11    1
    26    11    12   ar
    27    12    13   ar
    28    13    16    1
    29    16    17   ar
    30    17    18   ar
    31    18    19   ar
    32    19    20    1
    33    19    21   ar
    34    21    22   ar
    35    22    23    1
    36    13    14   ar
    37    14    15   ar
    38     6     1    1
    39    30    28    1
    40    15    11   ar
    41    40    38    1
    42    36    31   ar
    43    22    16   ar
    44     9    10    1
    45    26    27    1
