@<TRIPOS>MOLECULE
*****
 34 37 0 0 0
SMALL
GASTEIGER

@<TRIPOS>ATOM
      1 C         138.9796  140.3124  164.3203 C.ar    1  UNL1        0.0182
      2 C         138.0847  139.8657  165.4380 C.ar    1  UNL1        0.0014
      3 C         138.1894  138.4668  165.9692 C.ar    1  UNL1        0.0031
      4 C         139.1892  137.5147  165.3826 C.ar    1  UNL1        0.0366
      5 C         140.0841  137.9615  164.2649 C.ar    1  UNL1        0.1347
      6 C         139.9793  139.3603  163.7337 C.ar    1  UNL1        0.0151
      7 C         140.8743  139.8071  162.6159 C.3     1  UNL1        0.0528
      8 C         141.8740  138.8550  162.0293 C.3     1  UNL1        0.1200
      9 C         141.9788  137.4561  162.5605 C.3     1  UNL1        0.2250
     10 O         141.0838  137.0094  163.6783 O.3     1  UNL1       -0.4740
     11 C         138.6654  144.5091  162.7266 C.ar    1  UNL1        0.2449
     12 C         139.6386  144.1944  163.8237 C.ar    1  UNL1        0.1564
     13 N         139.7434  142.7955  164.3550 N.ar    1  UNL1       -0.2374
     14 C         138.8749  141.7113  163.7890 C.ar    1  UNL1        0.1005
     15 C         137.9016  142.0260  162.6919 C.ar    1  UNL1        0.1211
     16 N         137.7969  143.4248  162.1606 N.ar    1  UNL1       -0.2072
     17 C         139.6849  146.4911  161.3918 C.3     1  UNL1        0.2543
     18 O         138.5606  145.9079  162.1953 O.3     1  UNL1       -0.4551
     19 N         142.7690  139.3018  160.9116 N.am    1  UNL1       -0.2986
     20 C         142.3432  139.1074  159.4865 C.2     1  UNL1        0.2474
     21 O         141.0225  138.4662  159.1791 O.2     1  UNL1       -0.2701
     22 H         143.6359  139.7226  161.1133 H       1  UNL1        0.1498
     23 C         143.2382  139.5542  158.3687 C.ar    1  UNL1        0.0727
     24 C         144.0146  140.8314  158.4944 C.ar    1  UNL1        0.0109
     25 C         144.9096  141.2783  157.3767 C.ar    1  UNL1        0.0579
     26 C         145.0282  140.4478  156.1333 C.ar    1  UNL1        0.2251
     27 N         144.2519  139.1705  156.0075 N.ar    1  UNL1       -0.2100
     28 C         143.3569  138.7237  157.1252 C.ar    1  UNL1        0.1065
     29 O         145.9233  140.8946  155.0155 O.3     1  UNL1       -0.4509
     30 C         146.7926  142.1046  155.1888 C.3     1  UNL1        0.3095
     31 C         148.2468  141.9424  155.5189 C.3     1  UNL1        0.4381
     32 F         149.7009  141.7801  155.8491 F       1  UNL1       -0.1663
     33 F         147.9898  142.4575  156.9040 F       1  UNL1       -0.1663
     34 F         148.5037  141.4272  154.1338 F       1  UNL1       -0.1663
@<TRIPOS>BOND
     1    17    18    1
     2    18    11    1
     3    11    12   ar
     4    12    13   ar
     5    13    14   ar
     6    14     1    1
     7     1     2   ar
     8     2     3   ar
     9     3     4   ar
    10     4     5   ar
    11     5     6   ar
    12     6     7    1
    13     7     8    1
    14     8    19    1
    15    19    20   am
    16    20    21    2
    17    20    23    1
    18    23    24   ar
    19    24    25   ar
    20    25    26   ar
    21    26    29    1
    22    29    30    1
    23    30    31    1
    24    31    32    1
    25    31    33    1
    26    31    34    1
    27    26    27   ar
    28    27    28   ar
    29     8     9    1
    30     9    10    1
    31    14    15   ar
    32    15    16   ar
    33    16    11   ar
    34     6     1   ar
    35    28    23   ar
    36    10     5    1
    37    19    22    1
@<TRIPOS>MOLECULE
*****
 34 37 0 0 0
SMALL
GASTEIGER

@<TRIPOS>ATOM
      1 C         134.7837  141.1980  154.6796 C.ar    1  UNL1        0.0182
      2 C         134.5141  141.6259  153.2675 C.ar    1  UNL1        0.0014
      3 C         135.5893  142.3039  152.4711 C.ar    1  UNL1        0.0031
      4 C         136.9341  142.5539  153.0869 C.ar    1  UNL1        0.0366
      5 C         137.2036  142.1260  154.4990 C.ar    1  UNL1        0.1347
      6 C         136.1284  141.4480  155.2954 C.ar    1  UNL1        0.0151
      7 C         136.3979  141.0200  156.7076 C.3     1  UNL1        0.0528
      8 C         137.7427  141.2701  157.3234 C.3     1  UNL1        0.1200
      9 C         138.8179  141.9481  156.5269 C.3     1  UNL1        0.2250
     10 O         138.5484  142.3760  155.1148 O.3     1  UNL1       -0.4740
     11 C         131.5581  139.1640  157.0690 C.ar    1  UNL1        0.2449
     12 C         132.8801  138.4857  156.8639 C.ar    1  UNL1        0.1564
     13 N         133.9554  139.1638  156.0675 N.ar    1  UNL1       -0.2374
     14 C         133.7085  140.5199  155.4761 C.ar    1  UNL1        0.1005
     15 C         132.3864  141.1982  155.6812 C.ar    1  UNL1        0.1211
     16 N         131.3112  140.5203  156.4776 N.ar    1  UNL1       -0.2072
     17 C         129.3889  137.7373  157.1636 C.3     1  UNL1        0.2543
     18 O         130.4829  138.4861  157.8654 O.3     1  UNL1       -0.4551
     19 N         138.0122  140.8422  158.7355 N.am    1  UNL1       -0.2986
     20 C         138.7265  139.5509  159.0045 C.2     1  UNL1        0.2474
     21 O         139.1713  138.6875  157.8614 O.2     1  UNL1       -0.2701
     22 H         137.7203  141.4088  159.4858 H       1  UNL1        0.1498
     23 C         138.9961  139.1230  160.4168 C.ar    1  UNL1        0.0727
     24 C         140.3192  138.5149  160.7766 C.ar    1  UNL1        0.0109
     25 C         140.5888  138.0870  162.1887 C.ar    1  UNL1        0.0579
     26 C         139.5352  138.2672  163.2410 C.ar    1  UNL1        0.2251
     27 N         138.2121  138.8753  162.8812 N.ar    1  UNL1       -0.2100
     28 C         137.9425  139.3032  161.4691 C.ar    1  UNL1        0.1065
     29 O         139.8048  137.8393  164.6533 O.3     1  UNL1       -0.4509
     30 C         139.2073  138.6055  165.7961 C.3     1  UNL1        0.3095
     31 C         138.0402  138.0398  166.5496 C.3     1  UNL1        0.4381
     32 F         136.8732  137.4742  167.3032 F       1  UNL1       -0.1663
     33 F         138.2015  136.7380  165.8221 F       1  UNL1       -0.1663
     34 F         137.8790  139.3416  167.2771 F       1  UNL1       -0.1663
@<TRIPOS>BOND
     1    17    18    1
     2    18    11    1
     3    11    12   ar
     4    12    13   ar
     5    13    14   ar
     6    14     1    1
     7     1     2   ar
     8     2     3   ar
     9     3     4   ar
    10     4     5   ar
    11     5     6   ar
    12     6     7    1
    13     7     8    1
    14     8    19    1
    15    19    20   am
    16    20    21    2
    17    20    23    1
    18    23    24   ar
    19    24    25   ar
    20    25    26   ar
    21    26    29    1
    22    29    30    1
    23    30    31    1
    24    31    32    1
    25    31    33    1
    26    31    34    1
    27    26    27   ar
    28    27    28   ar
    29     8     9    1
    30     9    10    1
    31    14    15   ar
    32    15    16   ar
    33    16    11   ar
    34     6     1   ar
    35    28    23   ar
    36    10     5    1
    37    19    22    1
@<TRIPOS>MOLECULE
*****
 34 37 0 0 0
SMALL
GASTEIGER

@<TRIPOS>ATOM
      1 C         141.5991  140.5362  158.8042 C.ar    1  UNL1        0.0182
      2 C         141.3859  140.0347  157.4067 C.ar    1  UNL1        0.0014
      3 C         141.8696  138.6691  157.0180 C.ar    1  UNL1        0.0031
      4 C         142.5665  137.8050  158.0268 C.ar    1  UNL1        0.0366
      5 C         142.7797  138.3065  159.4243 C.ar    1  UNL1        0.1347
      6 C         142.2960  139.6721  159.8130 C.ar    1  UNL1        0.0151
      7 C         142.5093  140.1737  161.2105 C.3     1  UNL1        0.0528
      8 C         143.2062  139.3095  162.2193 C.3     1  UNL1        0.1200
      9 C         143.6899  137.9439  161.8305 C.3     1  UNL1        0.2250
     10 O         143.4767  137.4424  160.4330 O.3     1  UNL1       -0.4740
     11 C         140.1480  144.6331  159.9705 C.ar    1  UNL1        0.2449
     12 C         141.5704  144.4366  159.5366 C.ar    1  UNL1        0.1564
     13 N         142.0541  143.0710  159.1479 N.ar    1  UNL1       -0.2374
     14 C         141.1154  141.9019  159.1930 C.ar    1  UNL1        0.1005
     15 C         139.6930  142.0983  159.6268 C.ar    1  UNL1        0.1211
     16 N         139.2093  143.4639  160.0156 N.ar    1  UNL1       -0.2072
     17 C         139.6457  146.4048  161.8031 C.3     1  UNL1        0.2543
     18 O         139.6643  145.9987  160.3593 O.3     1  UNL1       -0.4551
     19 N         143.4194  139.8110  163.6168 N.am    1  UNL1       -0.2986
     20 C         142.3223  139.6902  164.6325 C.2     1  UNL1        0.2474
     21 O         141.0119  139.0680  164.2508 O.2     1  UNL1       -0.2701
     22 H         144.2794  140.2194  163.8673 H       1  UNL1        0.1498
     23 C         142.5355  140.1918  166.0301 C.ar    1  UNL1        0.0727
     24 C         142.6427  141.6652  166.2899 C.ar    1  UNL1        0.0109
     25 C         142.8559  142.1667  167.6874 C.ar    1  UNL1        0.0579
     26 C         142.9621  141.1949  168.8250 C.ar    1  UNL1        0.2251
     27 N         142.8549  139.7214  168.5651 N.ar    1  UNL1       -0.2100
     28 C         142.6417  139.2199  167.1676 C.ar    1  UNL1        0.1065
     29 O         143.1753  141.6964  170.2225 O.3     1  UNL1       -0.4509
     30 C         142.0060  142.1606  171.0394 C.3     1  UNL1        0.3095
     31 C         140.6078  141.9018  170.5621 C.3     1  UNL1        0.4381
     32 F         139.2095  141.6430  170.0848 F       1  UNL1       -0.1663
     33 F         140.6470  140.5385  171.1864 F       1  UNL1       -0.1663
     34 F         140.5685  143.2651  169.9378 F       1  UNL1       -0.1663
@<TRIPOS>BOND
     1    17    18    1
     2    18    11    1
     3    11    12   ar
     4    12    13   ar
     5    13    14   ar
     6    14     1    1
     7     1     2   ar
     8     2     3   ar
     9     3     4   ar
    10     4     5   ar
    11     5     6   ar
    12     6     7    1
    13     7     8    1
    14     8    19    1
    15    19    20   am
    16    20    21    2
    17    20    23    1
    18    23    24   ar
    19    24    25   ar
    20    25    26   ar
    21    26    29    1
    22    29    30    1
    23    30    31    1
    24    31    32    1
    25    31    33    1
    26    31    34    1
    27    26    27   ar
    28    27    28   ar
    29     8     9    1
    30     9    10    1
    31    14    15   ar
    32    15    16   ar
    33    16    11   ar
    34     6     1   ar
    35    28    23   ar
    36    10     5    1
    37    19    22    1
@<TRIPOS>MOLECULE
*****
 34 37 0 0 0
SMALL
GASTEIGER

@<TRIPOS>ATOM
      1 C         139.1085  143.0595  162.0518 C.ar    1  UNL1        0.0182
      2 C         138.4295  143.8582  163.1247 C.ar    1  UNL1        0.0014
      3 C         137.6207  143.1626  164.1791 C.ar    1  UNL1        0.0031
      4 C         137.4908  141.6684  164.1608 C.ar    1  UNL1        0.0366
      5 C         138.1697  140.8697  163.0879 C.ar    1  UNL1        0.1347
      6 C         138.9786  141.5652  162.0334 C.ar    1  UNL1        0.0151
      7 C         139.6576  140.7665  160.9605 C.3     1  UNL1        0.0528
      8 C         139.5277  139.2722  160.9422 C.3     1  UNL1        0.1200
      9 C         138.7188  138.5767  161.9967 C.3     1  UNL1        0.2250
     10 O         138.0399  139.3754  163.0695 O.3     1  UNL1       -0.4740
     11 C         141.5351  145.1460  158.8883 C.ar    1  UNL1        0.2449
     12 C         140.1555  144.6508  158.5701 C.ar    1  UNL1        0.1564
     13 N         139.3466  143.9552  159.6247 N.ar    1  UNL1       -0.2374
     14 C         139.9174  143.7550  160.9973 C.ar    1  UNL1        0.1005
     15 C         141.2970  144.2503  161.3154 C.ar    1  UNL1        0.1211
     16 N         142.1059  144.9458  160.2609 N.ar    1  UNL1       -0.2072
     17 C         142.1192  145.5241  156.3851 C.3     1  UNL1        0.2543
     18 O         142.3440  145.8415  157.8338 O.3     1  UNL1       -0.4551
     19 N         140.2067  138.4735  159.8693 N.am    1  UNL1       -0.2986
     20 C         139.7285  138.5644  158.4505 C.2     1  UNL1        0.2474
     21 O         138.5714  139.4539  158.1045 O.2     1  UNL1       -0.2701
     22 H         140.9661  137.8897  160.0964 H       1  UNL1        0.1498
     23 C         140.4075  137.7656  157.3776 C.ar    1  UNL1        0.0727
     24 C         141.8943  137.5705  157.4152 C.ar    1  UNL1        0.0109
     25 C         142.5733  136.7718  156.3425 C.ar    1  UNL1        0.0579
     26 C         141.7656  136.1682  155.2320 C.ar    1  UNL1        0.2251
     27 N         140.2788  136.3632  155.1944 N.ar    1  UNL1       -0.2100
     28 C         139.5998  137.1620  156.2672 C.ar    1  UNL1        0.1065
     29 O         142.4446  135.3694  154.1592 O.3     1  UNL1       -0.4509
     30 C         142.4888  133.8730  154.2527 C.3     1  UNL1        0.3095
     31 C         142.5392  133.2066  155.5956 C.3     1  UNL1        0.4381
     32 F         142.5895  132.5402  156.9384 F       1  UNL1       -0.1663
     33 F         141.0702  132.9167  155.5068 F       1  UNL1       -0.1663
     34 F         144.0082  133.4964  155.6843 F       1  UNL1       -0.1663
@<TRIPOS>BOND
     1    17    18    1
     2    18    11    1
     3    11    12   ar
     4    12    13   ar
     5    13    14   ar
     6    14     1    1
     7     1     2   ar
     8     2     3   ar
     9     3     4   ar
    10     4     5   ar
    11     5     6   ar
    12     6     7    1
    13     7     8    1
    14     8    19    1
    15    19    20   am
    16    20    21    2
    17    20    23    1
    18    23    24   ar
    19    24    25   ar
    20    25    26   ar
    21    26    29    1
    22    29    30    1
    23    30    31    1
    24    31    32    1
    25    31    33    1
    26    31    34    1
    27    26    27   ar
    28    27    28   ar
    29     8     9    1
    30     9    10    1
    31    14    15   ar
    32    15    16   ar
    33    16    11   ar
    34     6     1   ar
    35    28    23   ar
    36    10     5    1
    37    19    22    1
@<TRIPOS>MOLECULE
*****
 34 37 0 0 0
SMALL
GASTEIGER

@<TRIPOS>ATOM
      1 C         145.0766  140.0162  155.4383 C.ar    1  UNL1        0.0182
      2 C         146.0472  140.5151  154.4093 C.ar    1  UNL1        0.0014
      3 C         146.8382  141.7632  154.6673 C.ar    1  UNL1        0.0031
      4 C         146.6586  142.5123  155.9544 C.ar    1  UNL1        0.0366
      5 C         145.6880  142.0134  156.9834 C.ar    1  UNL1        0.1347
      6 C         144.8970  140.7653  156.7254 C.ar    1  UNL1        0.0151
      7 C         143.9263  140.2663  157.7544 C.3     1  UNL1        0.0528
      8 C         143.7467  141.0154  159.0415 C.3     1  UNL1        0.1200
      9 C         144.5378  142.2635  159.2995 C.3     1  UNL1        0.2250
     10 O         145.5084  142.7625  158.2705 O.3     1  UNL1       -0.4740
     11 C         142.7033  136.2720  154.6642 C.ar    1  UNL1        0.2449
     12 C         143.9887  136.1995  155.4340 C.ar    1  UNL1        0.1564
     13 N         144.7798  137.4476  155.6920 N.ar    1  UNL1       -0.2374
     14 C         144.2855  138.7681  155.1803 C.ar    1  UNL1        0.1005
     15 C         143.0001  138.8406  154.4105 C.ar    1  UNL1        0.1211
     16 N         142.2090  137.5926  154.1525 N.ar    1  UNL1       -0.2072
     17 C         141.7927  133.9776  155.4742 C.3     1  UNL1        0.2543
     18 O         141.9123  135.0240  154.4062 O.3     1  UNL1       -0.4551
     19 N         142.7761  140.5165  160.0705 N.am    1  UNL1       -0.2986
     20 C         143.1155  139.3145  160.9012 C.2     1  UNL1        0.2474
     21 O         144.4256  138.6114  160.7027 O.2     1  UNL1       -0.2701
     22 H         141.9163  140.9779  160.2008 H       1  UNL1        0.1498
     23 C         142.1448  138.8155  161.9302 C.ar    1  UNL1        0.0727
     24 C         142.6323  138.4253  163.2941 C.ar    1  UNL1        0.0109
     25 C         141.6617  137.9264  164.3231 C.ar    1  UNL1        0.0579
     26 C         140.2036  137.8177  163.9883 C.ar    1  UNL1        0.2251
     27 N         139.7162  138.2080  162.6245 N.ar    1  UNL1       -0.2100
     28 C         140.6868  138.7069  161.5954 C.ar    1  UNL1        0.1065
     29 O         139.2330  137.3188  165.0174 O.3     1  UNL1       -0.4509
     30 C         138.4141  138.2935  165.8108 C.3     1  UNL1        0.3095
     31 C         138.8326  139.7315  165.8940 C.3     1  UNL1        0.4381
     32 F         139.2510  141.1695  165.9772 F       1  UNL1       -0.1663
     33 F         139.9054  139.3625  166.8752 F       1  UNL1       -0.1663
     34 F         137.7597  140.1005  164.9128 F       1  UNL1       -0.1663
@<TRIPOS>BOND
     1    17    18    1
     2    18    11    1
     3    11    12   ar
     4    12    13   ar
     5    13    14   ar
     6    14     1    1
     7     1     2   ar
     8     2     3   ar
     9     3     4   ar
    10     4     5   ar
    11     5     6   ar
    12     6     7    1
    13     7     8    1
    14     8    19    1
    15    19    20   am
    16    20    21    2
    17    20    23    1
    18    23    24   ar
    19    24    25   ar
    20    25    26   ar
    21    26    29    1
    22    29    30    1
    23    30    31    1
    24    31    32    1
    25    31    33    1
    26    31    34    1
    27    26    27   ar
    28    27    28   ar
    29     8     9    1
    30     9    10    1
    31    14    15   ar
    32    15    16   ar
    33    16    11   ar
    34     6     1   ar
    35    28    23   ar
    36    10     5    1
    37    19    22    1
@<TRIPOS>MOLECULE
*****
 34 37 0 0 0
SMALL
GASTEIGER

@<TRIPOS>ATOM
      1 C         139.6415  142.5942  164.7860 C.ar    1  UNL1        0.0182
      2 C         139.1220  143.7807  165.5424 C.ar    1  UNL1        0.0014
      3 C         138.1882  144.7459  164.8742 C.ar    1  UNL1        0.0031
      4 C         137.7740  144.5246  163.4497 C.ar    1  UNL1        0.0366
      5 C         138.2936  143.3380  162.6933 C.ar    1  UNL1        0.1347
      6 C         139.2273  142.3729  163.3614 C.ar    1  UNL1        0.0151
      7 C         139.7469  141.1863  162.6050 C.3     1  UNL1        0.0528
      8 C         139.3327  140.9649  161.1805 C.3     1  UNL1        0.1200
      9 C         138.3989  141.9302  160.5123 C.3     1  UNL1        0.2250
     10 O         137.8793  143.1167  161.2687 O.3     1  UNL1       -0.4740
     11 C         142.4428  139.6985  166.7905 C.ar    1  UNL1        0.2449
     12 C         142.9926  140.8434  165.9925 C.ar    1  UNL1        0.1564
     13 N         142.0588  141.8086  165.3243 N.ar    1  UNL1       -0.2374
     14 C         140.5753  141.6290  165.4542 C.ar    1  UNL1        0.1005
     15 C         140.0255  140.4840  166.2523 C.ar    1  UNL1        0.1211
     16 N         140.9592  139.5188  166.9204 N.ar    1  UNL1       -0.2072
     17 C         144.1305  137.7292  166.6382 C.3     1  UNL1        0.2543
     18 O         143.3765  138.7332  167.4587 O.3     1  UNL1       -0.4551
     19 N         139.8522  139.7784  160.4241 N.am    1  UNL1       -0.2986
     20 C         140.7386  139.9791  159.2307 C.2     1  UNL1        0.2474
     21 O         141.1054  141.3663  158.7937 O.2     1  UNL1       -0.2701
     22 H         139.6114  138.8679  160.7108 H       1  UNL1        0.1498
     23 C         141.2581  138.7925  158.4743 C.ar    1  UNL1        0.0727
     24 C         140.4595  138.2158  157.3430 C.ar    1  UNL1        0.0109
     25 C         140.9789  137.0293  156.5866 C.ar    1  UNL1        0.0579
     26 C         142.2970  136.4193  156.9615 C.ar    1  UNL1        0.2251
     27 N         143.0956  136.9959  158.0927 N.ar    1  UNL1       -0.2100
     28 C         142.5762  138.1825  158.8491 C.ar    1  UNL1        0.1065
     29 O         142.8166  135.2327  156.2051 O.3     1  UNL1       -0.4509
     30 C         143.6755  134.2180  156.8997 C.3     1  UNL1        0.3095
     31 C         143.1943  132.8053  157.0507 C.3     1  UNL1        0.4381
     32 F         142.7131  131.3927  157.2017 F       1  UNL1       -0.1663
     33 F         141.9580  133.1432  156.2714 F       1  UNL1       -0.1663
     34 F         144.4306  132.4675  157.8300 F       1  UNL1       -0.1663
@<TRIPOS>BOND
     1    17    18    1
     2    18    11    1
     3    11    12   ar
     4    12    13   ar
     5    13    14   ar
     6    14     1    1
     7     1     2   ar
     8     2     3   ar
     9     3     4   ar
    10     4     5   ar
    11     5     6   ar
    12     6     7    1
    13     7     8    1
    14     8    19    1
    15    19    20   am
    16    20    21    2
    17    20    23    1
    18    23    24   ar
    19    24    25   ar
    20    25    26   ar
    21    26    29    1
    22    29    30    1
    23    30    31    1
    24    31    32    1
    25    31    33    1
    26    31    34    1
    27    26    27   ar
    28    27    28   ar
    29     8     9    1
    30     9    10    1
    31    14    15   ar
    32    15    16   ar
    33    16    11   ar
    34     6     1   ar
    35    28    23   ar
    36    10     5    1
    37    19    22    1
@<TRIPOS>MOLECULE
*****
 34 37 0 0 0
SMALL
GASTEIGER

@<TRIPOS>ATOM
      1 C         141.9412  142.9341  157.6999 C.ar    1  UNL1        0.0182
      2 C         142.2954  143.7029  156.4616 C.ar    1  UNL1        0.0014
      3 C         142.0224  145.1760  156.3897 C.ar    1  UNL1        0.0031
      4 C         141.3952  145.8804  157.5561 C.ar    1  UNL1        0.0366
      5 C         141.0410  145.1116  158.7944 C.ar    1  UNL1        0.1347
      6 C         141.3140  143.6384  158.8663 C.ar    1  UNL1        0.0151
      7 C         140.9598  142.8695  160.1046 C.3     1  UNL1        0.0528
      8 C         140.3326  143.5739  161.2710 C.3     1  UNL1        0.1200
      9 C         140.0596  145.0471  161.1991 C.3     1  UNL1        0.2250
     10 O         140.4138  145.8159  159.9608 O.3     1  UNL1       -0.4740
     11 C         142.7602  138.5144  157.9156 C.ar    1  UNL1        0.2449
     12 C         141.4185  139.0072  157.4608 C.ar    1  UNL1        0.1564
     13 N         141.1455  140.4804  157.3888 N.ar    1  UNL1       -0.2374
     14 C         142.2142  141.4608  157.7718 C.ar    1  UNL1        0.1005
     15 C         143.5559  140.9680  158.2267 C.ar    1  UNL1        0.1211
     16 N         143.8289  139.4949  158.2986 N.ar    1  UNL1       -0.2072
     17 C         142.7386  136.1654  156.8061 C.3     1  UNL1        0.2543
     18 O         143.0332  137.0413  157.9876 O.3     1  UNL1       -0.4551
     19 N         139.9784  142.8050  162.5093 N.am    1  UNL1       -0.2986
     20 C         140.8941  142.8330  163.6971 C.2     1  UNL1        0.2474
     21 O         142.1640  143.6298  163.6466 O.2     1  UNL1       -0.2701
     22 H         139.1450  142.2821  162.5425 H       1  UNL1        0.1498
     23 C         140.5399  142.0641  164.9354 C.ar    1  UNL1        0.0727
     24 C         140.7228  142.6913  166.2857 C.ar    1  UNL1        0.0109
     25 C         140.3686  141.9225  167.5240 C.ar    1  UNL1        0.0579
     26 C         139.8314  140.5265  167.4121 C.ar    1  UNL1        0.2251
     27 N         139.6485  139.8993  166.0618 N.ar    1  UNL1       -0.2100
     28 C         140.0027  140.6681  164.8235 C.ar    1  UNL1        0.1065
     29 O         139.4772  139.7576  168.6504 O.3     1  UNL1       -0.4509
     30 C         139.4612  140.4472  169.9824 C.3     1  UNL1        0.3095
     31 C         140.7247  140.5624  170.7825 C.3     1  UNL1        0.4381
     32 F         141.9882  140.6777  171.5826 F       1  UNL1       -0.1663
     33 F         141.1283  139.1862  170.3433 F       1  UNL1       -0.1663
     34 F         140.3210  141.9387  171.2218 F       1  UNL1       -0.1663
@<TRIPOS>BOND
     1    17    18    1
     2    18    11    1
     3    11    12   ar
     4    12    13   ar
     5    13    14   ar
     6    14     1    1
     7     1     2   ar
     8     2     3   ar
     9     3     4   ar
    10     4     5   ar
    11     5     6   ar
    12     6     7    1
    13     7     8    1
    14     8    19    1
    15    19    20   am
    16    20    21    2
    17    20    23    1
    18    23    24   ar
    19    24    25   ar
    20    25    26   ar
    21    26    29    1
    22    29    30    1
    23    30    31    1
    24    31    32    1
    25    31    33    1
    26    31    34    1
    27    26    27   ar
    28    27    28   ar
    29     8     9    1
    30     9    10    1
    31    14    15   ar
    32    15    16   ar
    33    16    11   ar
    34     6     1   ar
    35    28    23   ar
    36    10     5    1
    37    19    22    1
@<TRIPOS>MOLECULE
*****
 34 37 0 0 0
SMALL
GASTEIGER

@<TRIPOS>ATOM
      1 C         140.5771  142.4876  165.7905 C.ar    1  UNL1        0.0182
      2 C         140.3450  142.8806  167.2194 C.ar    1  UNL1        0.0014
      3 C         140.6287  141.9035  168.3215 C.ar    1  UNL1        0.0031
      4 C         141.1444  140.5334  167.9948 C.ar    1  UNL1        0.0366
      5 C         141.3764  140.1403  166.5660 C.ar    1  UNL1        0.1347
      6 C         141.0928  141.1174  165.4639 C.ar    1  UNL1        0.0151
      7 C         141.3248  140.7244  164.0349 C.3     1  UNL1        0.0528
      8 C         141.8405  139.3542  163.7082 C.3     1  UNL1        0.1200
      9 C         142.1242  138.3771  164.8105 C.3     1  UNL1        0.2250
     10 O         141.8921  138.7702  166.2393 O.3     1  UNL1       -0.4740
     11 C         139.7261  145.4189  162.4839 C.ar    1  UNL1        0.2449
     12 C         141.1197  145.2771  163.0202 C.ar    1  UNL1        0.1564
     13 N         141.4034  144.3000  164.1225 N.ar    1  UNL1       -0.2374
     14 C         140.2934  143.4647  164.6883 C.ar    1  UNL1        0.1005
     15 C         138.8998  143.6064  164.1519 C.ar    1  UNL1        0.1211
     16 N         138.6161  144.5835  163.0498 N.ar    1  UNL1       -0.2072
     17 C         140.0107  146.1676  160.0125 C.3     1  UNL1        0.2543
     18 O         139.4424  146.3959  161.3817 O.3     1  UNL1       -0.4551
     19 N         142.0725  138.9611  162.2794 N.am    1  UNL1       -0.2986
     20 C         140.9074  138.7859  161.3511 C.2     1  UNL1        0.2474
     21 O         139.5103  139.0037  161.8515 O.2     1  UNL1       -0.2701
     22 H         142.9895  138.8182  161.9509 H       1  UNL1        0.1498
     23 C         141.1396  138.3928  159.9221 C.ar    1  UNL1        0.0727
     24 C         142.5252  138.0659  159.4498 C.ar    1  UNL1        0.0109
     25 C         142.7574  137.6729  158.0210 C.ar    1  UNL1        0.0579
     26 C         141.6038  137.6067  157.0645 C.ar    1  UNL1        0.2251
     27 N         140.2182  137.9335  157.5368 N.ar    1  UNL1       -0.2100
     28 C         139.9860  138.3266  158.9657 C.ar    1  UNL1        0.1065
     29 O         141.8359  137.2136  155.6356 O.3     1  UNL1       -0.4509
     30 C         143.1565  136.6347  155.2220 C.3     1  UNL1        0.3095
     31 C         143.3310  135.1472  155.1409 C.3     1  UNL1        0.4381
     32 F         143.5055  133.6596  155.0597 F       1  UNL1       -0.1663
     33 F         144.0062  135.1533  156.4802 F       1  UNL1       -0.1663
     34 F         142.6557  135.1411  153.8015 F       1  UNL1       -0.1663
@<TRIPOS>BOND
     1    17    18    1
     2    18    11    1
     3    11    12   ar
     4    12    13   ar
     5    13    14   ar
     6    14     1    1
     7     1     2   ar
     8     2     3   ar
     9     3     4   ar
    10     4     5   ar
    11     5     6   ar
    12     6     7    1
    13     7     8    1
    14     8    19    1
    15    19    20   am
    16    20    21    2
    17    20    23    1
    18    23    24   ar
    19    24    25   ar
    20    25    26   ar
    21    26    29    1
    22    29    30    1
    23    30    31    1
    24    31    32    1
    25    31    33    1
    26    31    34    1
    27    26    27   ar
    28    27    28   ar
    29     8     9    1
    30     9    10    1
    31    14    15   ar
    32    15    16   ar
    33    16    11   ar
    34     6     1   ar
    35    28    23   ar
    36    10     5    1
    37    19    22    1
@<TRIPOS>MOLECULE
*****
 34 37 0 0 0
SMALL
GASTEIGER

@<TRIPOS>ATOM
      1 C         142.0995  142.2391  164.3139 C.ar    1  UNL1        0.0182
      2 C         143.2644  142.5573  165.2035 C.ar    1  UNL1        0.0014
      3 C         144.2382  143.6282  164.8099 C.ar    1  UNL1        0.0031
      4 C         144.0469  144.3809  163.5266 C.ar    1  UNL1        0.0366
      5 C         142.8820  144.0627  162.6369 C.ar    1  UNL1        0.1347
      6 C         141.9082  142.9919  163.0306 C.ar    1  UNL1        0.0151
      7 C         140.7432  142.6736  162.1409 C.3     1  UNL1        0.0528
      8 C         140.5520  143.4263  160.8576 C.3     1  UNL1        0.1200
      9 C         141.5258  144.4973  160.4640 C.3     1  UNL1        0.2250
     10 O         142.6907  144.8154  161.3536 O.3     1  UNL1       -0.4740
     11 C         139.1780  139.0264  165.4947 C.ar    1  UNL1        0.2449
     12 C         140.3379  138.6946  164.6033 C.ar    1  UNL1        0.1564
     13 N         141.3117  139.7655  164.2097 N.ar    1  UNL1       -0.2374
     14 C         141.1256  141.1682  164.7075 C.ar    1  UNL1        0.1005
     15 C         139.9657  141.5000  165.5988 C.ar    1  UNL1        0.1211
     16 N         138.9919  140.4292  165.9924 N.ar    1  UNL1       -0.2072
     17 C         137.3784  138.1127  167.1305 C.3     1  UNL1        0.2543
     18 O         138.2042  137.9556  165.8883 O.3     1  UNL1       -0.4551
     19 N         139.3870  143.1082  159.9679 N.am    1  UNL1       -0.2986
     20 C         139.6219  142.6660  158.5539 C.2     1  UNL1        0.2474
     21 O         141.0218  142.5420  158.0296 O.2     1  UNL1       -0.2701
     22 H         138.4682  143.1896  160.3120 H       1  UNL1        0.1498
     23 C         138.4569  142.3478  157.6642 C.ar    1  UNL1        0.0727
     24 C         137.6893  141.0741  157.8604 C.ar    1  UNL1        0.0109
     25 C         136.5243  140.7559  156.9708 C.ar    1  UNL1        0.0579
     26 C         136.1269  141.7114  155.8850 C.ar    1  UNL1        0.2251
     27 N         136.8944  142.9851  155.6888 N.ar    1  UNL1       -0.2100
     28 C         138.0594  143.3033  156.5784 C.ar    1  UNL1        0.1065
     29 O         134.9618  141.3932  154.9953 O.3     1  UNL1       -0.4509
     30 C         134.1535  140.1522  155.2331 C.3     1  UNL1        0.3095
     31 C         133.0806  140.1453  156.2813 C.3     1  UNL1        0.4381
     32 F         132.0078  140.1384  157.3296 F       1  UNL1       -0.1663
     33 F         132.7621  141.5765  155.9647 F       1  UNL1       -0.1663
     34 F         133.3991  138.7142  156.5979 F       1  UNL1       -0.1663
@<TRIPOS>BOND
     1    17    18    1
     2    18    11    1
     3    11    12   ar
     4    12    13   ar
     5    13    14   ar
     6    14     1    1
     7     1     2   ar
     8     2     3   ar
     9     3     4   ar
    10     4     5   ar
    11     5     6   ar
    12     6     7    1
    13     7     8    1
    14     8    19    1
    15    19    20   am
    16    20    21    2
    17    20    23    1
    18    23    24   ar
    19    24    25   ar
    20    25    26   ar
    21    26    29    1
    22    29    30    1
    23    30    31    1
    24    31    32    1
    25    31    33    1
    26    31    34    1
    27    26    27   ar
    28    27    28   ar
    29     8     9    1
    30     9    10    1
    31    14    15   ar
    32    15    16   ar
    33    16    11   ar
    34     6     1   ar
    35    28    23   ar
    36    10     5    1
    37    19    22    1
