@<TRIPOS>MOLECULE
*****
 31 35 0 0 0
SMALL
GASTEIGER

@<TRIPOS>ATOM
      1 N         142.8059  139.1521  162.6201 N.ar    1  UNL1       -0.2729
      2 C         141.8206  138.2680  161.9147 C.ar    1  UNL1        0.0860
      3 C         141.9905  137.9714  160.4542 C.ar    1  UNL1        0.0561
      4 C         143.1459  138.5589  159.6991 C.ar    1  UNL1        0.1453
      5 C         144.1312  139.4430  160.4045 C.ar    1  UNL1        0.0980
      6 C         143.9611  139.7396  161.8651 C.ar    1  UNL1        0.2679
      7 O         144.9464  140.6236  162.5705 O.2     1  UNL1       -0.2665
      8 C         140.1845  143.1603  166.0631 C.3     1  UNL1        0.0518
      9 C         140.9498  142.0386  166.7002 C.ar    1  UNL1        0.0574
     10 C         141.6719  140.9411  165.9762 C.ar    1  UNL1        0.0340
     11 C         141.8419  140.6446  164.5157 C.ar    1  UNL1        0.0203
     12 C         142.6358  139.4487  164.0807 C.ar    1  UNL1        0.0670
     13 C         143.2598  138.5492  165.1062 C.ar    1  UNL1        0.0192
     14 C         143.0898  138.8457  166.5667 C.ar    1  UNL1        0.0224
     15 C         142.2959  140.0417  167.0017 C.ar    1  UNL1        0.1021
     16 N         141.9594  140.5833  168.3595 N.ar    1  UNL1       -0.1697
     17 N         141.1275  141.8175  168.1731 N.ar    1  UNL1       -0.2569
     18 C         140.5709  142.6792  169.2675 C.3     1  UNL1        0.1049
     19 C         139.7775  142.8214  170.5325 C.3     1  UNL1        0.0263
     20 C         140.4004  144.0295  169.8981 C.3     1  UNL1        0.0263
     21 O         143.3158  138.2624  158.2386 O.3     1  UNL1       -0.4704
     22 C         142.4084  137.2777  157.5626 C.3     1  UNL1        0.2325
     23 C         142.9385  135.9423  157.1319 C.ar    1  UNL1        0.0281
     24 C         143.1308  135.4849  155.7164 C.ar    1  UNL1        0.0347
     25 S         143.6806  134.0897  155.7507 S.2     1  UNL1       -0.0829
     26 C         143.8280  133.6848  157.1875 C.ar    1  UNL1        0.1008
     27 C         143.3694  134.8297  158.0411 C.ar    1  UNL1        0.0102
     28 C         144.3436  132.3664  157.6836 C.3     1  UNL1        0.4241
     29 F         144.8592  131.0480  158.1797 F       1  UNL1       -0.1654
     30 F         143.2682  131.6568  156.9155 F       1  UNL1       -0.1654
     31 F         145.4191  133.0760  158.4517 F       1  UNL1       -0.1654
@<TRIPOS>BOND
     1     8     9    1
     2     9    10   ar
     3    10    11   ar
     4    11    12   ar
     5    12     1    1
     6     1     2   ar
     7     2     3   ar
     8     3     4   ar
     9     4    21    1
    10    21    22    1
    11    22    23    1
    12    23    24   ar
    13    24    25   ar
    14    25    26   ar
    15    26    28    1
    16    28    29    1
    17    28    30    1
    18    28    31    1
    19    26    27   ar
    20     4     5   ar
    21     5     6   ar
    22     6     7    2
    23    12    13   ar
    24    13    14   ar
    25    14    15   ar
    26    15    16   ar
    27    16    17   ar
    28    17    18    1
    29    18    19    1
    30    19    20    1
    31    17     9   ar
    32    20    18    1
    33    15    10   ar
    34     6     1   ar
    35    27    23   ar
@<TRIPOS>MOLECULE
*****
 31 35 0 0 0
SMALL
GASTEIGER

@<TRIPOS>ATOM
      1 N         140.8124  138.4728  161.2085 N.ar    1  UNL1       -0.2729
      2 C         139.7734  138.6309  160.1382 C.ar    1  UNL1        0.0860
      3 C         140.1418  138.4242  158.6990 C.ar    1  UNL1        0.0561
      4 C         141.5493  138.0595  158.3299 C.ar    1  UNL1        0.1453
      5 C         142.5883  137.9014  159.4002 C.ar    1  UNL1        0.0980
      6 C         142.2198  138.1081  160.8396 C.ar    1  UNL1        0.2679
      7 O         143.2588  137.9501  161.9099 O.2     1  UNL1       -0.2665
      8 C         141.5828  142.4902  165.4582 C.3     1  UNL1        0.0518
      9 C         140.8024  141.2457  165.7621 C.ar    1  UNL1        0.0574
     10 C         140.5143  140.1293  164.8026 C.ar    1  UNL1        0.0340
     11 C         140.8828  139.9227  163.3633 C.ar    1  UNL1        0.0203
     12 C         140.4439  138.6795  162.6479 C.ar    1  UNL1        0.0670
     13 C         139.6366  137.6430  163.3716 C.ar    1  UNL1        0.0192
     14 C         139.2681  137.8497  164.8109 C.ar    1  UNL1        0.0224
     15 C         139.7070  139.0928  165.5263 C.ar    1  UNL1        0.1021
     16 N         139.4961  139.5686  166.9332 N.ar    1  UNL1       -0.1697
     17 N         140.1731  140.8992  167.0789 N.ar    1  UNL1       -0.2569
     18 C         140.2138  141.7362  168.3230 C.3     1  UNL1        0.1049
     19 C         140.5034  143.0426  169.0008 C.3     1  UNL1        0.0263
     20 C         139.9945  141.8797  169.7999 C.3     1  UNL1        0.0263
     21 O         141.9177  137.8528  156.8907 O.3     1  UNL1       -0.4704
     22 C         141.3526  136.6891  156.1315 C.3     1  UNL1        0.2325
     23 C         142.0286  135.3517  156.1966 C.ar    1  UNL1        0.0281
     24 C         141.6368  134.1272  155.4237 C.ar    1  UNL1        0.0347
     25 S         142.5811  133.0226  155.7955 S.2     1  UNL1       -0.0829
     26 C         143.5565  133.5644  156.7981 C.ar    1  UNL1        0.1008
     27 C         143.2150  135.0038  157.0460 C.ar    1  UNL1        0.0102
     28 C         144.6766  132.8008  157.4401 C.3     1  UNL1        0.4241
     29 F         145.7968  132.0371  158.0820 F       1  UNL1       -0.1654
     30 F         144.5187  133.6182  158.6879 F       1  UNL1       -0.1654
     31 F         144.8345  131.9833  156.1923 F       1  UNL1       -0.1654
@<TRIPOS>BOND
     1     8     9    1
     2     9    10   ar
     3    10    11   ar
     4    11    12   ar
     5    12     1    1
     6     1     2   ar
     7     2     3   ar
     8     3     4   ar
     9     4    21    1
    10    21    22    1
    11    22    23    1
    12    23    24   ar
    13    24    25   ar
    14    25    26   ar
    15    26    28    1
    16    28    29    1
    17    28    30    1
    18    28    31    1
    19    26    27   ar
    20     4     5   ar
    21     5     6   ar
    22     6     7    2
    23    12    13   ar
    24    13    14   ar
    25    14    15   ar
    26    15    16   ar
    27    16    17   ar
    28    17    18    1
    29    18    19    1
    30    19    20    1
    31    17     9   ar
    32    20    18    1
    33    15    10   ar
    34     6     1   ar
    35    27    23   ar
@<TRIPOS>MOLECULE
*****
 31 35 0 0 0
SMALL
GASTEIGER

@<TRIPOS>ATOM
      1 N         140.4555  138.3721  158.2385 N.ar    1  UNL1       -0.2729
      2 C         139.6816  137.6603  157.1687 C.ar    1  UNL1        0.0860
      3 C         140.3765  137.1969  155.9228 C.ar    1  UNL1        0.0561
      4 C         141.8453  137.4453  155.7466 C.ar    1  UNL1        0.1453
      5 C         142.6192  138.1570  156.8165 C.ar    1  UNL1        0.0980
      6 C         141.9243  138.6204  158.0624 C.ar    1  UNL1        0.2679
      7 O         142.6981  139.3321  159.1323 O.2     1  UNL1       -0.2665
      8 C         140.5350  137.2839  164.0352 C.3     1  UNL1        0.0518
      9 C         139.5824  138.3104  163.4976 C.ar    1  UNL1        0.0574
     10 C         139.4336  138.7070  162.0586 C.ar    1  UNL1        0.0340
     11 C         140.1285  138.2436  160.8128 C.ar    1  UNL1        0.0203
     12 C         139.7606  138.8355  159.4845 C.ar    1  UNL1        0.0670
     13 C         138.6977  139.8907  159.4021 C.ar    1  UNL1        0.0192
     14 C         138.0028  140.3541  160.6480 C.ar    1  UNL1        0.0224
     15 C         138.3707  139.7623  161.9763 C.ar    1  UNL1        0.1021
     16 N         137.8627  140.0178  163.3643 N.ar    1  UNL1       -0.1697
     17 N         138.6116  139.1205  164.3046 N.ar    1  UNL1       -0.2569
     18 C         138.4228  139.0464  165.7908 C.3     1  UNL1        0.1049
     19 C         138.8437  139.4422  167.1750 C.3     1  UNL1        0.0263
     20 C         137.6750  138.5222  166.9807 C.3     1  UNL1        0.0263
     21 O         142.5402  136.9819  154.5007 O.3     1  UNL1       -0.4704
     22 C         142.3944  135.5601  154.0452 C.3     1  UNL1        0.2325
     23 C         142.7411  134.4354  154.9751 C.ar    1  UNL1        0.0281
     24 C         141.9027  133.2201  155.2399 C.ar    1  UNL1        0.0347
     25 S         142.6305  132.3621  156.2319 S.2     1  UNL1       -0.0829
     26 C         143.9187  133.0471  156.5803 C.ar    1  UNL1        0.1008
     27 C         143.9870  134.3285  155.8035 C.ar    1  UNL1        0.0102
     28 C         144.9563  132.5398  157.5373 C.3     1  UNL1        0.4241
     29 F         145.9940  132.0324  158.4943 F       1  UNL1       -0.1654
     30 F         144.4950  133.5320  158.5634 F       1  UNL1       -0.1654
     31 F         145.4176  131.5476  156.5113 F       1  UNL1       -0.1654
@<TRIPOS>BOND
     1     8     9    1
     2     9    10   ar
     3    10    11   ar
     4    11    12   ar
     5    12     1    1
     6     1     2   ar
     7     2     3   ar
     8     3     4   ar
     9     4    21    1
    10    21    22    1
    11    22    23    1
    12    23    24   ar
    13    24    25   ar
    14    25    26   ar
    15    26    28    1
    16    28    29    1
    17    28    30    1
    18    28    31    1
    19    26    27   ar
    20     4     5   ar
    21     5     6   ar
    22     6     7    2
    23    12    13   ar
    24    13    14   ar
    25    14    15   ar
    26    15    16   ar
    27    16    17   ar
    28    17    18    1
    29    18    19    1
    30    19    20    1
    31    17     9   ar
    32    20    18    1
    33    15    10   ar
    34     6     1   ar
    35    27    23   ar
@<TRIPOS>MOLECULE
*****
 31 35 0 0 0
SMALL
GASTEIGER

@<TRIPOS>ATOM
      1 N         141.1232  138.3173  160.9411 N.ar    1  UNL1       -0.2729
      2 C         139.6266  138.3875  160.8681 C.ar    1  UNL1        0.0860
      3 C         138.8019  138.0985  162.0872 C.ar    1  UNL1        0.0561
      4 C         139.4737  137.7392  163.3793 C.ar    1  UNL1        0.1453
      5 C         140.9703  137.6689  163.4523 C.ar    1  UNL1        0.0980
      6 C         141.7950  137.9580  162.2331 C.ar    1  UNL1        0.2679
      7 O         143.2916  137.8877  162.3061 O.2     1  UNL1       -0.2665
      8 C         144.7939  142.4812  158.9463 C.3     1  UNL1        0.0518
      9 C         144.5009  141.2907  158.0821 C.ar    1  UNL1        0.0574
     10 C         143.5962  140.1471  158.4339 C.ar    1  UNL1        0.0340
     11 C         142.7715  139.8581  159.6530 C.ar    1  UNL1        0.0203
     12 C         141.9480  138.6064  159.7219 C.ar    1  UNL1        0.0670
     13 C         141.9491  137.6436  158.5716 C.ar    1  UNL1        0.0192
     14 C         142.7738  137.9326  157.3525 C.ar    1  UNL1        0.0224
     15 C         143.5973  139.1844  157.2836 C.ar    1  UNL1        0.1021
     16 N         144.5027  139.7330  156.2209 N.ar    1  UNL1       -0.1697
     17 N         145.0612  141.0347  156.7144 N.ar    1  UNL1       -0.2569
     18 C         146.0129  141.9243  155.9708 C.3     1  UNL1        0.1049
     19 C         146.2967  142.8605  154.8337 C.3     1  UNL1        0.0263
     20 C         147.3772  142.5289  155.8199 C.3     1  UNL1        0.0263
     21 O         138.6490  137.4501  164.5984 O.3     1  UNL1       -0.4704
     22 C         138.6130  138.4339  165.7301 C.3     1  UNL1        0.2325
     23 C         138.7626  139.9006  165.4540 C.ar    1  UNL1        0.0281
     24 C         139.8279  140.7983  166.0102 C.ar    1  UNL1        0.0347
     25 S         139.5970  142.1797  165.4731 S.2     1  UNL1       -0.0829
     26 C         138.3890  142.1357  164.5849 C.ar    1  UNL1        0.1008
     27 C         137.8734  140.7272  164.5731 C.ar    1  UNL1        0.0102
     28 C         137.8000  143.2965  163.8394 C.3     1  UNL1        0.4241
     29 F         137.2111  144.4572  163.0938 F       1  UNL1       -0.1654
     30 F         137.8235  144.1154  165.0959 F       1  UNL1       -0.1654
     31 F         137.7766  142.4776  162.5828 F       1  UNL1       -0.1654
@<TRIPOS>BOND
     1     8     9    1
     2     9    10   ar
     3    10    11   ar
     4    11    12   ar
     5    12     1    1
     6     1     2   ar
     7     2     3   ar
     8     3     4   ar
     9     4    21    1
    10    21    22    1
    11    22    23    1
    12    23    24   ar
    13    24    25   ar
    14    25    26   ar
    15    26    28    1
    16    28    29    1
    17    28    30    1
    18    28    31    1
    19    26    27   ar
    20     4     5   ar
    21     5     6   ar
    22     6     7    2
    23    12    13   ar
    24    13    14   ar
    25    14    15   ar
    26    15    16   ar
    27    16    17   ar
    28    17    18    1
    29    18    19    1
    30    19    20    1
    31    17     9   ar
    32    20    18    1
    33    15    10   ar
    34     6     1   ar
    35    27    23   ar
@<TRIPOS>MOLECULE
*****
 31 35 0 0 0
SMALL
GASTEIGER

@<TRIPOS>ATOM
      1 N         140.2862  138.7121  162.3444 N.ar    1  UNL1       -0.2729
      2 C         141.6431  138.1886  161.9771 C.ar    1  UNL1        0.0860
      3 C         142.0163  138.0195  160.5342 C.ar    1  UNL1        0.0561
      4 C         141.0327  138.3739  159.4585 C.ar    1  UNL1        0.1453
      5 C         139.6759  138.8974  159.8258 C.ar    1  UNL1        0.0980
      6 C         139.3027  139.0665  161.2688 C.ar    1  UNL1        0.2679
      7 O         137.9458  139.5900  161.6362 O.2     1  UNL1       -0.2665
      8 C         141.6300  142.2101  166.8996 C.3     1  UNL1        0.0518
      9 C         140.6265  141.1121  167.0929 C.ar    1  UNL1        0.0574
     10 C         140.1728  140.1380  166.0463 C.ar    1  UNL1        0.0340
     11 C         140.5461  139.9690  164.6034 C.ar    1  UNL1        0.0203
     12 C         139.9130  138.8812  163.7874 C.ar    1  UNL1        0.0670
     13 C         138.9066  137.9624  164.4144 C.ar    1  UNL1        0.0192
     14 C         138.5334  138.1315  165.8573 C.ar    1  UNL1        0.0224
     15 C         139.1665  139.2193  166.6733 C.ar    1  UNL1        0.1021
     16 N         138.9982  139.6255  168.1074 N.ar    1  UNL1       -0.1697
     17 N         139.9005  140.7954  168.3667 N.ar    1  UNL1       -0.2569
     18 C         140.0506  141.5210  169.6709 C.3     1  UNL1        0.1049
     19 C         139.6841  142.6630  170.5717 C.3     1  UNL1        0.0263
     20 C         140.6769  141.6358  171.0290 C.3     1  UNL1        0.0263
     21 O         141.4060  138.2048  158.0156 O.3     1  UNL1       -0.4704
     22 C         142.5874  137.3601  157.6405 C.3     1  UNL1        0.2325
     23 C         142.3884  136.1013  156.8494 C.ar    1  UNL1        0.0281
     24 C         141.3611  135.8867  155.7777 C.ar    1  UNL1        0.0347
     25 S         141.5195  134.4889  155.2570 S.2     1  UNL1       -0.0829
     26 C         142.6448  133.8397  156.0069 C.ar    1  UNL1        0.1008
     27 C         143.1818  134.8362  156.9910 C.ar    1  UNL1        0.0102
     28 C         143.1452  132.4397  155.8076 C.3     1  UNL1        0.4241
     29 F         143.6457  131.0398  155.6083 F       1  UNL1       -0.1654
     30 F         141.7312  131.9458  155.7270 F       1  UNL1       -0.1654
     31 F         144.5593  132.9337  155.8881 F       1  UNL1       -0.1654
@<TRIPOS>BOND
     1     8     9    1
     2     9    10   ar
     3    10    11   ar
     4    11    12   ar
     5    12     1    1
     6     1     2   ar
     7     2     3   ar
     8     3     4   ar
     9     4    21    1
    10    21    22    1
    11    22    23    1
    12    23    24   ar
    13    24    25   ar
    14    25    26   ar
    15    26    28    1
    16    28    29    1
    17    28    30    1
    18    28    31    1
    19    26    27   ar
    20     4     5   ar
    21     5     6   ar
    22     6     7    2
    23    12    13   ar
    24    13    14   ar
    25    14    15   ar
    26    15    16   ar
    27    16    17   ar
    28    17    18    1
    29    18    19    1
    30    19    20    1
    31    17     9   ar
    32    20    18    1
    33    15    10   ar
    34     6     1   ar
    35    27    23   ar
@<TRIPOS>MOLECULE
*****
 31 35 0 0 0
SMALL
GASTEIGER

@<TRIPOS>ATOM
      1 N         142.4394  142.3600  160.1248 N.ar    1  UNL1       -0.2729
      2 C         141.6730  143.6489  160.1622 C.ar    1  UNL1        0.0860
      3 C         140.8582  144.0021  161.3711 C.ar    1  UNL1        0.0561
      4 C         140.8098  143.0665  162.5425 C.ar    1  UNL1        0.1453
      5 C         141.5762  141.7776  162.5050 C.ar    1  UNL1        0.0980
      6 C         142.3910  141.4244  161.2961 C.ar    1  UNL1        0.2679
      7 O         143.1574  140.1355  161.2587 O.2     1  UNL1       -0.2665
      8 C         147.8257  143.3770  157.9465 C.3     1  UNL1        0.0518
      9 C         146.8710  142.5237  157.1653 C.ar    1  UNL1        0.0574
     10 C         145.4717  142.1675  157.5717 C.ar    1  UNL1        0.0340
     11 C         144.6569  142.5207  158.7805 C.ar    1  UNL1        0.0203
     12 C         143.2543  142.0069  158.9159 C.ar    1  UNL1        0.0670
     13 C         142.6663  141.1398  157.8423 C.ar    1  UNL1        0.0192
     14 C         143.4810  140.7866  156.6334 C.ar    1  UNL1        0.0224
     15 C         144.8837  141.3005  156.4981 C.ar    1  UNL1        0.1021
     16 N         145.9197  141.1208  155.4283 N.ar    1  UNL1       -0.1697
     17 N         147.1479  141.8768  155.8406 N.ar    1  UNL1       -0.2569
     18 C         148.4281  141.9695  155.0645 C.3     1  UNL1        0.1049
     19 C         149.2421  142.5962  153.9715 C.3     1  UNL1        0.0263
     20 C         149.8316  141.5035  154.8133 C.3     1  UNL1        0.0263
     21 O         139.9950  143.4197  163.7513 O.3     1  UNL1       -0.4704
     22 C         138.7772  142.6148  164.0963 C.3     1  UNL1        0.2325
     23 C         138.8773  141.4874  165.0806 C.ar    1  UNL1        0.0281
     24 C         139.7766  141.4416  166.2802 C.ar    1  UNL1        0.0347
     25 S         139.5508  140.1338  166.9791 S.2     1  UNL1       -0.0829
     26 C         138.5119  139.3712  166.2115 C.ar    1  UNL1        0.1008
     27 C         138.0957  140.2078  165.0381 C.ar    1  UNL1        0.0102
     28 C         137.9823  138.0109  166.5566 C.3     1  UNL1        0.4241
     29 F         137.4526  136.6507  166.9018 F       1  UNL1       -0.1654
     30 F         138.6698  137.4379  165.3529 F       1  UNL1       -0.1654
     31 F         137.2947  138.5840  167.7604 F       1  UNL1       -0.1654
@<TRIPOS>BOND
     1     8     9    1
     2     9    10   ar
     3    10    11   ar
     4    11    12   ar
     5    12     1    1
     6     1     2   ar
     7     2     3   ar
     8     3     4   ar
     9     4    21    1
    10    21    22    1
    11    22    23    1
    12    23    24   ar
    13    24    25   ar
    14    25    26   ar
    15    26    28    1
    16    28    29    1
    17    28    30    1
    18    28    31    1
    19    26    27   ar
    20     4     5   ar
    21     5     6   ar
    22     6     7    2
    23    12    13   ar
    24    13    14   ar
    25    14    15   ar
    26    15    16   ar
    27    16    17   ar
    28    17    18    1
    29    18    19    1
    30    19    20    1
    31    17     9   ar
    32    20    18    1
    33    15    10   ar
    34     6     1   ar
    35    27    23   ar
@<TRIPOS>MOLECULE
*****
 31 35 0 0 0
SMALL
GASTEIGER

@<TRIPOS>ATOM
      1 N         141.5838  139.5028  161.3786 N.ar    1  UNL1       -0.2729
      2 C         142.5361  138.4125  160.9854 C.ar    1  UNL1        0.0860
      3 C         142.4878  137.8379  159.6008 C.ar    1  UNL1        0.0561
      4 C         141.4873  138.3534  158.6092 C.ar    1  UNL1        0.1453
      5 C         140.5350  139.4437  159.0024 C.ar    1  UNL1        0.0980
      6 C         140.5833  140.0183  160.3871 C.ar    1  UNL1        0.2679
      7 O         139.6310  141.1086  160.7803 O.2     1  UNL1       -0.2665
      8 C         138.6203  139.0963  166.4623 C.3     1  UNL1        0.0518
      9 C         139.8048  140.0128  166.3785 C.ar    1  UNL1        0.0574
     10 C         140.6648  140.2338  165.1695 C.ar    1  UNL1        0.0340
     11 C         140.6164  139.6591  163.7848 C.ar    1  UNL1        0.0203
     12 C         141.6321  140.0774  162.7634 C.ar    1  UNL1        0.0670
     13 C         142.6961  141.0704  163.1266 C.ar    1  UNL1        0.0192
     14 C         142.7444  141.6451  164.5113 C.ar    1  UNL1        0.0224
     15 C         141.7288  141.2268  165.5327 C.ar    1  UNL1        0.1021
     16 N         141.5264  141.6195  166.9662 N.ar    1  UNL1       -0.1697
     17 N         140.3373  140.8692  167.4889 N.ar    1  UNL1       -0.2569
     18 C         139.7788  140.9595  168.8782 C.3     1  UNL1        0.1049
     19 C         138.9246  140.3944  169.9741 C.3     1  UNL1        0.0263
     20 C         139.6657  141.6809  170.1884 C.3     1  UNL1        0.0263
     21 O         141.4390  137.7787  157.2245 O.3     1  UNL1       -0.4704
     22 C         142.6472  137.0983  156.6523 C.3     1  UNL1        0.2325
     23 C         142.6945  135.6016  156.5659 C.ar    1  UNL1        0.0281
     24 C         141.8634  134.7442  155.6582 C.ar    1  UNL1        0.0347
     25 S         142.2364  133.3121  155.9034 S.2     1  UNL1       -0.0829
     26 C         143.2982  133.2845  156.9626 C.ar    1  UNL1        0.1008
     27 C         143.5813  134.6995  157.3721 C.ar    1  UNL1        0.0102
     28 C         143.9605  132.0574  157.5153 C.3     1  UNL1        0.4241
     29 F         144.6229  130.8303  158.0681 F       1  UNL1       -0.1654
     30 F         142.7688  131.2364  157.1207 F       1  UNL1       -0.1654
     31 F         145.1523  132.8784  157.9100 F       1  UNL1       -0.1654
@<TRIPOS>BOND
     1     8     9    1
     2     9    10   ar
     3    10    11   ar
     4    11    12   ar
     5    12     1    1
     6     1     2   ar
     7     2     3   ar
     8     3     4   ar
     9     4    21    1
    10    21    22    1
    11    22    23    1
    12    23    24   ar
    13    24    25   ar
    14    25    26   ar
    15    26    28    1
    16    28    29    1
    17    28    30    1
    18    28    31    1
    19    26    27   ar
    20     4     5   ar
    21     5     6   ar
    22     6     7    2
    23    12    13   ar
    24    13    14   ar
    25    14    15   ar
    26    15    16   ar
    27    16    17   ar
    28    17    18    1
    29    18    19    1
    30    19    20    1
    31    17     9   ar
    32    20    18    1
    33    15    10   ar
    34     6     1   ar
    35    27    23   ar
@<TRIPOS>MOLECULE
*****
 31 35 0 0 0
SMALL
GASTEIGER

@<TRIPOS>ATOM
      1 N         141.2954  136.9858  156.7176 N.ar    1  UNL1       -0.2729
      2 C         142.4238  137.5120  157.5541 C.ar    1  UNL1        0.0860
      3 C         142.1563  138.5401  158.6130 C.ar    1  UNL1        0.0561
      4 C         140.7604  139.0421  158.8355 C.ar    1  UNL1        0.1453
      5 C         139.6320  138.5159  157.9989 C.ar    1  UNL1        0.0980
      6 C         139.8995  137.4877  156.9400 C.ar    1  UNL1        0.2679
      7 O         138.7711  136.9615  156.1035 O.2     1  UNL1       -0.2665
      8 C         143.5988  131.5749  156.2611 C.3     1  UNL1        0.0518
      9 C         143.0831  132.2558  155.0280 C.ar    1  UNL1        0.0574
     10 C         142.4701  133.6234  154.9671 C.ar    1  UNL1        0.0340
     11 C         142.2025  134.6515  156.0260 C.ar    1  UNL1        0.0203
     12 C         141.5630  135.9576  155.6586 C.ar    1  UNL1        0.0670
     13 C         141.1909  136.2356  154.2324 C.ar    1  UNL1        0.0192
     14 C         141.4584  135.2075  153.1734 C.ar    1  UNL1        0.0224
     15 C         142.0980  133.9014  153.5408 C.ar    1  UNL1        0.1021
     16 N         142.4811  132.7055  152.7203 N.ar    1  UNL1       -0.1697
     17 N         143.0900  131.6885  153.6394 N.ar    1  UNL1       -0.2569
     18 C         143.6137  130.3408  153.2401 C.3     1  UNL1        0.1049
     19 C         143.3721  128.9568  152.7147 C.3     1  UNL1        0.0263
     20 C         144.7624  129.3906  153.0740 C.3     1  UNL1        0.0263
     21 O         140.4929  140.0702  159.8944 O.3     1  UNL1       -0.4704
     22 C         139.2545  139.9760  160.7355 C.3     1  UNL1        0.2325
     23 C         139.2919  139.2479  162.0464 C.ar    1  UNL1        0.0281
     24 C         140.1788  138.0866  162.3850 C.ar    1  UNL1        0.0347
     25 S         139.8840  137.6743  163.7967 S.2     1  UNL1       -0.0829
     26 C         138.8148  138.5808  164.3307 C.ar    1  UNL1        0.1008
     27 C         138.4488  139.5533  163.2489 C.ar    1  UNL1        0.0102
     28 C         138.2166  138.5246  165.7051 C.3     1  UNL1        0.4241
     29 F         137.6184  138.4683  167.0795 F       1  UNL1       -0.1654
     30 F         137.9408  139.9978  165.6453 F       1  UNL1       -0.1654
     31 F         138.4923  137.0513  165.7649 F       1  UNL1       -0.1654
@<TRIPOS>BOND
     1     8     9    1
     2     9    10   ar
     3    10    11   ar
     4    11    12   ar
     5    12     1    1
     6     1     2   ar
     7     2     3   ar
     8     3     4   ar
     9     4    21    1
    10    21    22    1
    11    22    23    1
    12    23    24   ar
    13    24    25   ar
    14    25    26   ar
    15    26    28    1
    16    28    29    1
    17    28    30    1
    18    28    31    1
    19    26    27   ar
    20     4     5   ar
    21     5     6   ar
    22     6     7    2
    23    12    13   ar
    24    13    14   ar
    25    14    15   ar
    26    15    16   ar
    27    16    17   ar
    28    17    18    1
    29    18    19    1
    30    19    20    1
    31    17     9   ar
    32    20    18    1
    33    15    10   ar
    34     6     1   ar
    35    27    23   ar
@<TRIPOS>MOLECULE
*****
 31 35 0 0 0
SMALL
GASTEIGER

@<TRIPOS>ATOM
      1 N         138.8574  140.1675  160.5827 N.ar    1  UNL1       -0.2729
      2 C         138.1345  140.4700  161.8618 C.ar    1  UNL1        0.0860
      3 C         138.3199  139.5817  163.0562 C.ar    1  UNL1        0.0561
      4 C         139.2283  138.3909  162.9715 C.ar    1  UNL1        0.1453
      5 C         139.9511  138.0885  161.6924 C.ar    1  UNL1        0.0980
      6 C         139.7656  138.9769  160.4980 C.ar    1  UNL1        0.2679
      7 O         140.4885  138.6744  159.2190 O.2     1  UNL1       -0.2665
      8 C         140.8677  145.3151  158.5205 C.3     1  UNL1        0.0518
      9 C         139.8615  144.5482  157.7147 C.ar    1  UNL1        0.0574
     10 C         139.2504  143.2308  158.0904 C.ar    1  UNL1        0.0340
     11 C         139.4359  142.3425  159.2847 C.ar    1  UNL1        0.0203
     12 C         138.6719  141.0559  159.3883 C.ar    1  UNL1        0.0670
     13 C         137.7224  140.6575  158.2976 C.ar    1  UNL1        0.0192
     14 C         137.5369  141.5458  157.1033 C.ar    1  UNL1        0.0224
     15 C         138.3009  142.8324  156.9996 C.ar    1  UNL1        0.1021
     16 N         138.3251  143.9036  155.9499 N.ar    1  UNL1       -0.1697
     17 N         139.2896  144.9640  156.3918 N.ar    1  UNL1       -0.2569
     18 C         139.6237  146.2197  155.6424 C.3     1  UNL1        0.1049
     19 C         139.4180  147.6872  155.4096 C.3     1  UNL1        0.0263
     20 C         140.4078  146.9272  154.5772 C.3     1  UNL1        0.0263
     21 O         139.4137  137.5027  164.1659 O.3     1  UNL1       -0.4704
     22 C         140.7937  137.2091  164.6752 C.3     1  UNL1        0.2325
     23 C         141.7497  138.3338  164.9420 C.ar    1  UNL1        0.0281
     24 C         141.6472  139.3324  166.0565 C.ar    1  UNL1        0.0347
     25 S         142.8102  140.2731  165.9444 S.2     1  UNL1       -0.0829
     26 C         143.6314  139.8559  164.7605 C.ar    1  UNL1        0.1008
     27 C         142.9760  138.6573  164.1410 C.ar    1  UNL1        0.0102
     28 C         144.8875  140.5205  164.2805 C.3     1  UNL1        0.4241
     29 F         146.1437  141.1851  163.8005 F       1  UNL1       -0.1654
     30 F         144.1565  141.8261  164.1754 F       1  UNL1       -0.1654
     31 F         145.6186  139.2149  164.3856 F       1  UNL1       -0.1654
@<TRIPOS>BOND
     1     8     9    1
     2     9    10   ar
     3    10    11   ar
     4    11    12   ar
     5    12     1    1
     6     1     2   ar
     7     2     3   ar
     8     3     4   ar
     9     4    21    1
    10    21    22    1
    11    22    23    1
    12    23    24   ar
    13    24    25   ar
    14    25    26   ar
    15    26    28    1
    16    28    29    1
    17    28    30    1
    18    28    31    1
    19    26    27   ar
    20     4     5   ar
    21     5     6   ar
    22     6     7    2
    23    12    13   ar
    24    13    14   ar
    25    14    15   ar
    26    15    16   ar
    27    16    17   ar
    28    17    18    1
    29    18    19    1
    30    19    20    1
    31    17     9   ar
    32    20    18    1
    33    15    10   ar
    34     6     1   ar
    35    27    23   ar
