@<TRIPOS>MOLECULE
*****
 38 42 0 0 0
SMALL
GASTEIGER

@<TRIPOS>ATOM
      1 C         145.6206  141.8410  163.3513 C.3     1  UNL1        0.0553
      2 C         144.7884  141.6989  162.1114 C.ar    1  UNL1        0.0935
      3 N         144.7821  140.5199  161.1840 N.ar    1  UNL1       -0.1727
      4 N         143.8062  140.8033  160.0806 N.ar    1  UNL1       -0.2558
      5 C         143.2094  142.1573  160.3260 C.ar    1  UNL1        0.0704
      6 C         142.1854  142.8383  159.4672 C.3     1  UNL1        0.0531
      7 C         143.8164  142.7109  161.5811 C.ar    1  UNL1        0.0792
      8 C         143.4838  139.8924  158.9333 C.3     1  UNL1        0.1083
      9 C         142.7076  138.6313  159.1721 C.3     1  UNL1        0.0459
     10 C         142.3852  137.7204  158.0247 C.3     1  UNL1        0.0954
     11 N         142.8390  138.0708  156.6386 N.am    1  UNL1       -0.2783
     12 C         142.5165  137.1599  155.4912 C.2     1  UNL1        0.2397
     13 O         142.9702  137.5102  154.1051 O.2     1  UNL1       -0.2734
     14 C         143.6151  139.3319  156.3998 C.3     1  UNL1        0.0954
     15 C         143.9375  140.2427  157.5472 C.3     1  UNL1        0.0459
     16 C         141.7403  135.8987  155.7301 C.3     1  UNL1        0.1286
     17 C         142.4622  134.6219  156.0438 C.3     1  UNL1        0.0267
     18 N         140.2423  135.9144  155.6551 N.3     1  UNL1       -0.3150
     19 H         139.8826  134.9785  155.8427 H       1  UNL1        0.1192
     20 H         139.9515  136.2099  154.7232 H       1  UNL1        0.1192
     21 N         143.5060  144.0426  162.1977 N.pl3   1  UNL1       -0.2806
     22 H         144.1225  144.7996  162.0706 H       1  UNL1        0.1551
     23 C         142.2563  144.2211  163.0078 C.ar    1  UNL1        0.2208
     24 N         141.2713  145.2914  162.6413 N.ar    1  UNL1       -0.2111
     25 C         140.0216  145.4698  163.4514 C.ar    1  UNL1        0.1147
     26 C         139.7568  144.5779  164.6281 C.ar    1  UNL1        0.0946
     27 CL        138.5071  144.7564  165.4382 Cl      1  UNL1       -0.0790
     28 C         140.7418  143.5076  164.9946 C.ar    1  UNL1        0.0992
     29 N         141.9915  143.3292  164.1845 N.ar    1  UNL1       -0.2126
     30 C         140.4770  142.6157  166.1712 C.ar    1  UNL1        0.0572
     31 C         141.0044  142.8110  167.5619 C.ar    1  UNL1        0.1235
     32 N         140.4916  141.6879  168.4139 N.ar    1  UNL1       -0.1634
     33 N         139.6474  140.7987  167.5499 N.ar    1  UNL1       -0.2281
     34 C         138.8858  139.5409  167.8461 C.ar    1  UNL1        0.1004
     35 C         138.1151  138.8565  166.7563 C.ar    1  UNL1        0.0207
     36 C         138.1061  139.4299  165.3703 C.ar    1  UNL1        0.0031
     37 C         138.8677  140.6877  165.0740 C.ar    1  UNL1        0.0193
     38 C         139.6384  141.3721  166.1638 C.ar    1  UNL1        0.0858
@<TRIPOS>BOND
     1     1     2    1
     2     2     3   ar
     3     3     4   ar
     4     4     8    1
     5     8     9    1
     6     9    10    1
     7    10    11    1
     8    11    12   am
     9    12    13    2
    10    12    16    1
    11    16    17    1
    12    16    18    1
    13    11    14    1
    14    14    15    1
    15     4     5   ar
    16     5     6    1
    17     5     7   ar
    18     7    21    1
    19    21    23    1
    20    23    24   ar
    21    24    25   ar
    22    25    26   ar
    23    26    27    1
    24    26    28   ar
    25    28    30    1
    26    30    31   ar
    27    31    32   ar
    28    32    33   ar
    29    33    34   ar
    30    34    35   ar
    31    35    36   ar
    32    36    37   ar
    33    37    38   ar
    34    28    29   ar
    35     7     2   ar
    36    29    23   ar
    37    15     8    1
    38    38    30   ar
    39    38    33   ar
    40    18    19    1
    41    18    20    1
    42    21    22    1
@<TRIPOS>MOLECULE
*****
 38 42 0 0 0
SMALL
GASTEIGER

@<TRIPOS>ATOM
      1 C         144.0223  142.7082  160.6503 C.3     1  UNL1        0.0553
      2 C         143.1837  142.9924  161.8610 C.ar    1  UNL1        0.0935
      3 N         143.1801  142.2026  163.1363 N.ar    1  UNL1       -0.1727
      4 N         142.1955  142.8385  164.0725 N.ar    1  UNL1       -0.2558
      5 C         141.5907  144.0212  163.3759 C.ar    1  UNL1        0.0704
      6 C         140.5567  144.9463  163.9459 C.3     1  UNL1        0.0531
      7 C         142.2014  144.1164  162.0091 C.ar    1  UNL1        0.0792
      8 C         141.8726  142.3733  165.4615 C.3     1  UNL1        0.1083
      9 C         142.9333  142.3852  166.5220 C.3     1  UNL1        0.0459
     10 C         142.6104  141.9200  167.9111 C.3     1  UNL1        0.0954
     11 N         141.2267  141.4429  168.2395 N.am    1  UNL1       -0.2783
     12 C         140.9038  140.9776  169.6285 C.2     1  UNL1        0.2397
     13 O         139.5201  140.5005  169.9570 O.2     1  UNL1       -0.2734
     14 C         140.1660  141.4310  167.1789 C.3     1  UNL1        0.0954
     15 C         140.4890  141.8962  165.7900 C.3     1  UNL1        0.0459
     16 C         141.9645  140.9895  170.6890 C.3     1  UNL1        0.1286
     17 C         142.9871  139.8933  170.7393 C.3     1  UNL1        0.0267
     18 N         142.0026  142.0977  171.6993 N.3     1  UNL1       -0.3150
     19 H         142.7824  141.9475  172.3394 H       1  UNL1        0.1192
     20 H         141.1286  142.1088  172.2249 H       1  UNL1        0.1192
     21 N         141.8853  145.1533  160.9724 N.pl3   1  UNL1       -0.2806
     22 H         142.2122  146.0754  161.0828 H       1  UNL1        0.1551
     23 C         141.0712  144.7855  159.7675 C.ar    1  UNL1        0.2208
     24 N         140.2180  143.5519  159.7869 N.ar    1  UNL1       -0.2111
     25 C         139.4039  143.1841  158.5819 C.ar    1  UNL1        0.1147
     26 C         139.4429  144.0499  157.3576 C.ar    1  UNL1        0.0946
     27 CL        138.6288  143.6821  156.1527 Cl      1  UNL1       -0.0790
     28 C         140.2961  145.2835  157.3382 C.ar    1  UNL1        0.0992
     29 N         141.1102  145.6513  158.5431 N.ar    1  UNL1       -0.2126
     30 C         140.3352  146.1493  156.1139 C.ar    1  UNL1        0.0572
     31 C         141.0199  145.8178  154.8212 C.ar    1  UNL1        0.1235
     32 N         140.8042  146.9622  153.8757 N.ar    1  UNL1       -0.1634
     33 N         139.9861  148.0009  154.5841 N.ar    1  UNL1       -0.2281
     34 C         139.4677  149.3393  154.1483 C.ar    1  UNL1        0.1004
     35 C         138.6594  150.1752  155.0958 C.ar    1  UNL1        0.0207
     36 C         138.3695  149.6728  156.4791 C.ar    1  UNL1        0.0031
     37 C         138.8879  148.3344  156.9149 C.ar    1  UNL1        0.0193
     38 C         139.6962  147.4985  155.9674 C.ar    1  UNL1        0.0858
@<TRIPOS>BOND
     1     1     2    1
     2     2     3   ar
     3     3     4   ar
     4     4     8    1
     5     8     9    1
     6     9    10    1
     7    10    11    1
     8    11    12   am
     9    12    13    2
    10    12    16    1
    11    16    17    1
    12    16    18    1
    13    11    14    1
    14    14    15    1
    15     4     5   ar
    16     5     6    1
    17     5     7   ar
    18     7    21    1
    19    21    23    1
    20    23    24   ar
    21    24    25   ar
    22    25    26   ar
    23    26    27    1
    24    26    28   ar
    25    28    30    1
    26    30    31   ar
    27    31    32   ar
    28    32    33   ar
    29    33    34   ar
    30    34    35   ar
    31    35    36   ar
    32    36    37   ar
    33    37    38   ar
    34    28    29   ar
    35     7     2   ar
    36    29    23   ar
    37    15     8    1
    38    38    30   ar
    39    38    33   ar
    40    18    19    1
    41    18    20    1
    42    21    22    1
@<TRIPOS>MOLECULE
*****
 38 42 0 0 0
SMALL
GASTEIGER

@<TRIPOS>ATOM
      1 C         140.2504  138.2074  161.3372 C.3     1  UNL1        0.0553
      2 C         141.1226  138.6610  162.4700 C.ar    1  UNL1        0.0935
      3 N         140.6606  139.3659  163.7109 N.ar    1  UNL1       -0.1727
      4 N         141.8625  139.6300  164.5688 N.ar    1  UNL1       -0.2558
      5 C         143.0673  139.0883  163.8581 C.ar    1  UNL1        0.0704
      6 C         144.4810  139.1369  164.3568 C.3     1  UNL1        0.0531
      7 C         142.6100  138.4895  162.5610 C.ar    1  UNL1        0.0792
      8 C         141.8600  140.3153  165.9030 C.3     1  UNL1        0.1083
      9 C         140.7863  140.0052  166.9035 C.3     1  UNL1        0.0459
     10 C         140.7838  140.6906  168.2378 C.3     1  UNL1        0.0954
     11 N         141.8551  141.6861  168.5715 N.am    1  UNL1       -0.2783
     12 C         141.8526  142.3714  169.9059 C.2     1  UNL1        0.2397
     13 O         142.9239  143.3669  170.2397 O.2     1  UNL1       -0.2734
     14 C         142.9288  141.9962  167.5711 C.3     1  UNL1        0.0954
     15 C         142.9312  141.3107  166.2368 C.3     1  UNL1        0.0459
     16 C         140.7788  142.0613  170.9063 C.3     1  UNL1        0.1286
     17 C         139.5375  142.9018  170.9589 C.3     1  UNL1        0.0267
     18 N         140.9464  140.9108  171.8540 N.3     1  UNL1       -0.3150
     19 H         140.1274  140.8463  172.4587 H       1  UNL1        0.1192
     20 H         141.7791  141.0585  172.4242 H       1  UNL1        0.1192
     21 N         143.4862  137.8341  161.5350 N.pl3   1  UNL1       -0.2806
     22 H         144.1272  137.1383  161.8072 H       1  UNL1        0.1551
     23 C         143.3858  138.2390  160.0941 C.ar    1  UNL1        0.2208
     24 N         143.9487  139.5544  159.6437 N.ar    1  UNL1       -0.2111
     25 C         143.8483  139.9592  158.2029 C.ar    1  UNL1        0.1147
     26 C         143.1850  139.0486  157.2124 C.ar    1  UNL1        0.0946
     27 CL        143.0846  139.4534  155.7716 Cl      1  UNL1       -0.0790
     28 C         142.6222  137.7331  157.6629 C.ar    1  UNL1        0.0992
     29 N         142.7226  137.3284  159.1037 N.ar    1  UNL1       -0.2126
     30 C         141.9589  136.8225  156.6725 C.ar    1  UNL1        0.0572
     31 C         140.6804  137.0996  155.9385 C.ar    1  UNL1        0.1235
     32 N         140.3892  135.9233  155.0546 N.ar    1  UNL1       -0.1634
     33 N         141.4876  134.9192  155.2422 N.ar    1  UNL1       -0.2281
     34 C         141.7298  133.5706  154.6317 C.ar    1  UNL1        0.1004
     35 C         142.9421  132.7779  155.0211 C.ar    1  UNL1        0.0207
     36 C         143.9123  133.3336  156.0210 C.ar    1  UNL1        0.0031
     37 C         143.6702  134.6822  156.6315 C.ar    1  UNL1        0.0193
     38 C         142.4578  135.4750  156.2421 C.ar    1  UNL1        0.0858
@<TRIPOS>BOND
     1     1     2    1
     2     2     3   ar
     3     3     4   ar
     4     4     8    1
     5     8     9    1
     6     9    10    1
     7    10    11    1
     8    11    12   am
     9    12    13    2
    10    12    16    1
    11    16    17    1
    12    16    18    1
    13    11    14    1
    14    14    15    1
    15     4     5   ar
    16     5     6    1
    17     5     7   ar
    18     7    21    1
    19    21    23    1
    20    23    24   ar
    21    24    25   ar
    22    25    26   ar
    23    26    27    1
    24    26    28   ar
    25    28    30    1
    26    30    31   ar
    27    31    32   ar
    28    32    33   ar
    29    33    34   ar
    30    34    35   ar
    31    35    36   ar
    32    36    37   ar
    33    37    38   ar
    34    28    29   ar
    35     7     2   ar
    36    29    23   ar
    37    15     8    1
    38    38    30   ar
    39    38    33   ar
    40    18    19    1
    41    18    20    1
    42    21    22    1
@<TRIPOS>MOLECULE
*****
 38 42 0 0 0
SMALL
GASTEIGER

@<TRIPOS>ATOM
      1 C         140.8911  145.5175  162.2405 C.3     1  UNL1        0.0553
      2 C         140.7813  144.6194  161.0442 C.ar    1  UNL1        0.0935
      3 N         139.5551  144.4147  160.2049 N.ar    1  UNL1       -0.1727
      4 N         139.8944  143.4369  159.1191 N.ar    1  UNL1       -0.2558
      5 C         141.3303  143.0373  159.2873 C.ar    1  UNL1        0.0704
      6 C         142.0855  142.0758  158.4184 C.3     1  UNL1        0.0531
      7 C         141.8786  143.7681  160.4771 C.ar    1  UNL1        0.0792
      8 C         138.9616  142.9452  158.0523 C.3     1  UNL1        0.1083
      9 C         138.1234  141.7248  158.2933 C.3     1  UNL1        0.0459
     10 C         137.1905  141.2329  157.2266 C.3     1  UNL1        0.0954
     11 N         137.0959  141.9616  155.9189 N.am    1  UNL1       -0.2783
     12 C         136.1630  141.4698  154.8521 C.2     1  UNL1        0.2397
     13 O         136.0683  142.1984  153.5443 O.2     1  UNL1       -0.2734
     14 C         137.9341  143.1820  155.6778 C.3     1  UNL1        0.0954
     15 C         138.8669  143.6737  156.7447 C.3     1  UNL1        0.0459
     16 C         135.3248  140.2494  155.0931 C.3     1  UNL1        0.1286
     17 C         133.9170  140.3928  155.5904 C.3     1  UNL1        0.0267
     18 N         135.8945  138.8856  154.8368 N.3     1  UNL1       -0.3150
     19 H         135.1923  138.1779  155.0520 H       1  UNL1        0.1192
     20 H         136.7135  138.7427  155.4278 H       1  UNL1        0.1192
     21 N         143.2781  143.6656  161.0069 N.pl3   1  UNL1       -0.2806
     22 H         143.9515  144.3368  160.7513 H       1  UNL1        0.1551
     23 C         143.6517  142.5406  161.9260 C.ar    1  UNL1        0.2208
     24 N         144.9912  142.5371  162.6011 N.ar    1  UNL1       -0.2111
     25 C         145.3648  141.4121  163.5202 C.ar    1  UNL1        0.1147
     26 C         144.3990  140.2906  163.7641 C.ar    1  UNL1        0.0946
     27 CL        144.7726  139.1656  164.6832 Cl      1  UNL1       -0.0790
     28 C         143.0595  140.2942  163.0890 C.ar    1  UNL1        0.0992
     29 N         142.6859  141.4192  162.1699 N.ar    1  UNL1       -0.2126
     30 C         142.0936  139.1727  163.3329 C.ar    1  UNL1        0.0572
     31 C         142.1074  137.8343  162.6558 C.ar    1  UNL1        0.1235
     32 N         140.9667  137.0272  163.2013 N.ar    1  UNL1       -0.1634
     33 N         140.2480  137.8668  164.2155 N.ar    1  UNL1       -0.2281
     34 C         139.0494  137.5952  165.0754 C.ar    1  UNL1        0.1004
     35 C         138.5473  138.6496  166.0166 C.ar    1  UNL1        0.0207
     36 C         139.2437  139.9756  166.0980 C.ar    1  UNL1        0.0031
     37 C         140.4424  140.2472  165.2381 C.ar    1  UNL1        0.0193
     38 C         140.9445  139.1928  164.2968 C.ar    1  UNL1        0.0858
@<TRIPOS>BOND
     1     1     2    1
     2     2     3   ar
     3     3     4   ar
     4     4     8    1
     5     8     9    1
     6     9    10    1
     7    10    11    1
     8    11    12   am
     9    12    13    2
    10    12    16    1
    11    16    17    1
    12    16    18    1
    13    11    14    1
    14    14    15    1
    15     4     5   ar
    16     5     6    1
    17     5     7   ar
    18     7    21    1
    19    21    23    1
    20    23    24   ar
    21    24    25   ar
    22    25    26   ar
    23    26    27    1
    24    26    28   ar
    25    28    30    1
    26    30    31   ar
    27    31    32   ar
    28    32    33   ar
    29    33    34   ar
    30    34    35   ar
    31    35    36   ar
    32    36    37   ar
    33    37    38   ar
    34    28    29   ar
    35     7     2   ar
    36    29    23   ar
    37    15     8    1
    38    38    30   ar
    39    38    33   ar
    40    18    19    1
    41    18    20    1
    42    21    22    1
@<TRIPOS>MOLECULE
*****
 38 42 0 0 0
SMALL
GASTEIGER

@<TRIPOS>ATOM
      1 C         142.4587  145.4171  163.9153 C.3     1  UNL1        0.0553
      2 C         142.2136  144.6452  162.6527 C.ar    1  UNL1        0.0935
      3 N         141.0953  144.8773  161.6803 N.ar    1  UNL1       -0.1727
      4 N         141.2344  143.8811  160.5674 N.ar    1  UNL1       -0.2558
      5 C         142.4387  143.0333  160.8521 C.ar    1  UNL1        0.0704
      6 C         142.9483  141.9106  159.9980 C.3     1  UNL1        0.0531
      7 C         143.0439  143.5055  162.1408 C.ar    1  UNL1        0.0792
      8 C         140.3284  143.7548  159.3787 C.3     1  UNL1        0.1083
      9 C         140.5464  144.6216  158.1741 C.3     1  UNL1        0.0459
     10 C         139.6403  144.4954  156.9853 C.3     1  UNL1        0.0954
     11 N         138.5162  143.5024  157.0013 N.am    1  UNL1       -0.2783
     12 C         137.6101  143.3762  155.8125 C.2     1  UNL1        0.2397
     13 O         136.4860  142.3832  155.8284 O.2     1  UNL1       -0.2734
     14 C         138.2982  142.6356  158.2059 C.3     1  UNL1        0.0954
     15 C         139.2043  142.7619  159.3946 C.3     1  UNL1        0.0459
     16 C         137.8282  144.2430  154.6079 C.3     1  UNL1        0.1286
     17 C         138.6105  143.7204  153.4396 C.3     1  UNL1        0.0267
     18 N         137.2640  145.6324  154.5716 N.3     1  UNL1       -0.3150
     19 H         137.5064  146.0747  153.6850 H       1  UNL1        0.1192
     20 H         137.6529  146.1775  155.3410 H       1  UNL1        0.1192
     21 N         144.2649  142.9378  162.8017 N.pl3   1  UNL1       -0.2806
     22 H         145.1418  143.3641  162.6650 H       1  UNL1        0.1551
     23 C         144.1501  141.7207  163.6708 C.ar    1  UNL1        0.2208
     24 N         145.0988  140.5739  163.4846 N.ar    1  UNL1       -0.2111
     25 C         144.9839  139.3568  164.3537 C.ar    1  UNL1        0.1147
     26 C         143.9204  139.2865  165.4091 C.ar    1  UNL1        0.0946
     27 CL        143.8055  138.0694  166.2783 Cl      1  UNL1       -0.0790
     28 C         142.9716  140.4334  165.5954 C.ar    1  UNL1        0.0992
     29 N         143.0865  141.6504  164.7263 N.ar    1  UNL1       -0.2126
     30 C         141.9081  140.3631  166.6508 C.ar    1  UNL1        0.0572
     31 C         142.0020  140.9302  168.0364 C.ar    1  UNL1        0.1235
     32 N         140.7159  140.6309  168.7478 N.ar    1  UNL1       -0.1634
     33 N         139.8270  139.8790  167.8020 N.ar    1  UNL1       -0.2281
     34 C         138.4419  139.3236  167.9535 C.ar    1  UNL1        0.1004
     35 C         137.7936  138.6027  166.8090 C.ar    1  UNL1        0.0207
     36 C         138.5305  138.4372  165.5129 C.ar    1  UNL1        0.0031
     37 C         139.9156  138.9926  165.3615 C.ar    1  UNL1        0.0193
     38 C         140.5638  139.7135  166.5060 C.ar    1  UNL1        0.0858
@<TRIPOS>BOND
     1     1     2    1
     2     2     3   ar
     3     3     4   ar
     4     4     8    1
     5     8     9    1
     6     9    10    1
     7    10    11    1
     8    11    12   am
     9    12    13    2
    10    12    16    1
    11    16    17    1
    12    16    18    1
    13    11    14    1
    14    14    15    1
    15     4     5   ar
    16     5     6    1
    17     5     7   ar
    18     7    21    1
    19    21    23    1
    20    23    24   ar
    21    24    25   ar
    22    25    26   ar
    23    26    27    1
    24    26    28   ar
    25    28    30    1
    26    30    31   ar
    27    31    32   ar
    28    32    33   ar
    29    33    34   ar
    30    34    35   ar
    31    35    36   ar
    32    36    37   ar
    33    37    38   ar
    34    28    29   ar
    35     7     2   ar
    36    29    23   ar
    37    15     8    1
    38    38    30   ar
    39    38    33   ar
    40    18    19    1
    41    18    20    1
    42    21    22    1
@<TRIPOS>MOLECULE
*****
 38 42 0 0 0
SMALL
GASTEIGER

@<TRIPOS>ATOM
      1 C         136.9477  139.9091  160.3685 C.3     1  UNL1        0.0553
      2 C         137.7532  139.5175  161.5717 C.ar    1  UNL1        0.0935
      3 N         137.5535  140.0239  162.9694 N.ar    1  UNL1       -0.1727
      4 N         138.5768  139.3701  163.8501 N.ar    1  UNL1       -0.2558
      5 C         139.4090  138.4597  162.9966 C.ar    1  UNL1        0.0704
      6 C         140.5498  137.6077  163.4683 C.3     1  UNL1        0.0531
      7 C         138.9000  138.5507  161.5885 C.ar    1  UNL1        0.0792
      8 C         138.7394  139.5885  165.3251 C.3     1  UNL1        0.1083
      9 C         139.7615  140.5630  165.8308 C.3     1  UNL1        0.0459
     10 C         139.9241  140.7814  167.3060 C.3     1  UNL1        0.0954
     11 N         139.0646  140.0253  168.2753 N.am    1  UNL1       -0.2783
     12 C         139.2272  140.2437  169.7504 C.2     1  UNL1        0.2397
     13 O         138.3678  139.4875  170.7198 O.2     1  UNL1       -0.2734
     14 C         138.0426  139.0507  167.7695 C.3     1  UNL1        0.0954
     15 C         137.8801  138.8324  166.2944 C.3     1  UNL1        0.0459
     16 C         140.2492  141.2182  170.2561 C.3     1  UNL1        0.1286
     17 C         139.9227  142.6807  170.3221 C.3     1  UNL1        0.0267
     18 N         141.5978  140.7302  170.6959 N.3     1  UNL1       -0.3150
     19 H         142.1609  141.5217  171.0072 H       1  UNL1        0.1192
     20 H         142.0634  140.2679  169.9149 H       1  UNL1        0.1192
     21 N         139.4425  137.8058  160.4049 N.pl3   1  UNL1       -0.2806
     22 H         139.0325  136.9543  160.1291 H       1  UNL1        0.1551
     23 C         140.6096  138.3582  159.6415 C.ar    1  UNL1        0.2208
     24 N         140.8465  137.9334  158.2226 N.ar    1  UNL1       -0.2111
     25 C         142.0135  138.4859  157.4592 C.ar    1  UNL1        0.1147
     26 C         142.9437  139.4631  158.1148 C.ar    1  UNL1        0.0946
     27 CL        144.1108  140.0156  157.3514 Cl      1  UNL1       -0.0790
     28 C         142.7068  139.8880  159.5338 C.ar    1  UNL1        0.0992
     29 N         141.5398  139.3355  160.2971 N.ar    1  UNL1       -0.2126
     30 C         143.6370  140.8652  160.1894 C.ar    1  UNL1        0.0572
     31 C         144.1310  142.1492  159.5917 C.ar    1  UNL1        0.1235
     32 N         145.0358  142.8075  160.5907 N.ar    1  UNL1       -0.1634
     33 N         145.1009  141.9304  161.8058 N.ar    1  UNL1       -0.2281
     34 C         145.8357  142.0697  163.1060 C.ar    1  UNL1        0.1004
     35 C         145.7060  141.0086  164.1582 C.ar    1  UNL1        0.0207
     36 C         144.8415  139.8081  163.9102 C.ar    1  UNL1        0.0031
     37 C         144.1067  139.6688  162.6100 C.ar    1  UNL1        0.0193
     38 C         144.2364  140.7299  161.5578 C.ar    1  UNL1        0.0858
@<TRIPOS>BOND
     1     1     2    1
     2     2     3   ar
     3     3     4   ar
     4     4     8    1
     5     8     9    1
     6     9    10    1
     7    10    11    1
     8    11    12   am
     9    12    13    2
    10    12    16    1
    11    16    17    1
    12    16    18    1
    13    11    14    1
    14    14    15    1
    15     4     5   ar
    16     5     6    1
    17     5     7   ar
    18     7    21    1
    19    21    23    1
    20    23    24   ar
    21    24    25   ar
    22    25    26   ar
    23    26    27    1
    24    26    28   ar
    25    28    30    1
    26    30    31   ar
    27    31    32   ar
    28    32    33   ar
    29    33    34   ar
    30    34    35   ar
    31    35    36   ar
    32    36    37   ar
    33    37    38   ar
    34    28    29   ar
    35     7     2   ar
    36    29    23   ar
    37    15     8    1
    38    38    30   ar
    39    38    33   ar
    40    18    19    1
    41    18    20    1
    42    21    22    1
@<TRIPOS>MOLECULE
*****
 38 42 0 0 0
SMALL
GASTEIGER

@<TRIPOS>ATOM
      1 C         138.5298  137.7397  162.4027 C.3     1  UNL1        0.0553
      2 C         138.7011  138.8805  163.3614 C.ar    1  UNL1        0.0935
      3 N         139.4763  138.8446  164.6451 N.ar    1  UNL1       -0.1727
      4 N         139.3816  140.1995  165.2819 N.ar    1  UNL1       -0.2558
      5 C         138.5479  141.0727  164.3918 C.ar    1  UNL1        0.0704
      6 C         138.1964  142.5089  164.6442 C.3     1  UNL1        0.0531
      7 C         138.1273  140.2576  163.2049 C.ar    1  UNL1        0.0792
      8 C         140.0102  140.6091  166.5807 C.3     1  UNL1        0.1083
      9 C         141.1286  141.6087  166.5903 C.3     1  UNL1        0.0459
     10 C         141.7573  142.0184  167.8892 C.3     1  UNL1        0.0954
     11 N         141.2675  141.4284  169.1784 N.am    1  UNL1       -0.2783
     12 C         141.8962  141.8381  170.4773 C.2     1  UNL1        0.2397
     13 O         141.4065  141.2482  171.7665 O.2     1  UNL1       -0.2734
     14 C         140.1491  140.4289  169.1688 C.3     1  UNL1        0.0954
     15 C         139.5205  140.0193  167.8699 C.3     1  UNL1        0.0459
     16 C         143.0146  142.8377  170.4868 C.3     1  UNL1        0.1286
     17 C         144.3843  142.4351  170.0265 C.3     1  UNL1        0.0267
     18 N         142.7633  144.2399  170.9567 N.3     1  UNL1       -0.3150
     19 H         143.6273  144.7786  170.8964 H       1  UNL1        0.1192
     20 H         142.4409  144.2216  171.9242 H       1  UNL1        0.1192
     21 N         137.2814  140.7355  162.0621 N.pl3   1  UNL1       -0.2806
     22 H         136.3000  140.6849  162.1212 H       1  UNL1        0.1551
     23 C         137.9308  141.2907  160.8291 C.ar    1  UNL1        0.2208
     24 N         138.6958  142.5790  160.8997 N.ar    1  UNL1       -0.2111
     25 C         139.3451  143.1341  159.6667 C.ar    1  UNL1        0.1147
     26 C         139.2296  142.4009  158.3633 C.ar    1  UNL1        0.0946
     27 CL        139.8789  142.9560  157.1303 Cl      1  UNL1       -0.0790
     28 C         138.4646  141.1125  158.2927 C.ar    1  UNL1        0.0992
     29 N         137.8152  140.5574  159.5257 N.ar    1  UNL1       -0.2126
     30 C         138.3490  140.3793  156.9893 C.ar    1  UNL1        0.0572
     31 C         139.3434  139.4017  156.4364 C.ar    1  UNL1        0.1235
     32 N         138.8276  138.9132  155.1152 N.ar    1  UNL1       -0.1634
     33 N         137.5146  139.5888  154.8516 N.ar    1  UNL1       -0.2281
     34 C         136.5501  139.4959  153.7066 C.ar    1  UNL1        0.1004
     35 C         135.2898  140.3092  153.7198 C.ar    1  UNL1        0.0207
     36 C         134.9940  141.2153  154.8781 C.ar    1  UNL1        0.0031
     37 C         135.9584  141.3081  156.0231 C.ar    1  UNL1        0.0193
     38 C         137.2188  140.4949  156.0099 C.ar    1  UNL1        0.0858
@<TRIPOS>BOND
     1     1     2    1
     2     2     3   ar
     3     3     4   ar
     4     4     8    1
     5     8     9    1
     6     9    10    1
     7    10    11    1
     8    11    12   am
     9    12    13    2
    10    12    16    1
    11    16    17    1
    12    16    18    1
    13    11    14    1
    14    14    15    1
    15     4     5   ar
    16     5     6    1
    17     5     7   ar
    18     7    21    1
    19    21    23    1
    20    23    24   ar
    21    24    25   ar
    22    25    26   ar
    23    26    27    1
    24    26    28   ar
    25    28    30    1
    26    30    31   ar
    27    31    32   ar
    28    32    33   ar
    29    33    34   ar
    30    34    35   ar
    31    35    36   ar
    32    36    37   ar
    33    37    38   ar
    34    28    29   ar
    35     7     2   ar
    36    29    23   ar
    37    15     8    1
    38    38    30   ar
    39    38    33   ar
    40    18    19    1
    41    18    20    1
    42    21    22    1
@<TRIPOS>MOLECULE
*****
 38 42 0 0 0
SMALL
GASTEIGER

@<TRIPOS>ATOM
      1 C         137.3175  139.5072  160.9986 C.3     1  UNL1        0.0553
      2 C         138.3159  139.5303  162.1179 C.ar    1  UNL1        0.0935
      3 N         138.1175  140.1632  163.4633 N.ar    1  UNL1       -0.1727
      4 N         139.3670  139.9486  164.2653 N.ar    1  UNL1       -0.2558
      5 C         140.3374  139.1831  163.4155 C.ar    1  UNL1        0.0704
      6 C         141.7155  138.7519  163.8215 C.3     1  UNL1        0.0531
      7 C         139.6879  138.9246  162.0883 C.ar    1  UNL1        0.0792
      8 C         139.6042  140.4173  165.6703 C.3     1  UNL1        0.1083
      9 C         140.2841  141.7312  165.9179 C.3     1  UNL1        0.0459
     10 C         140.5214  142.1999  167.3229 C.3     1  UNL1        0.0954
     11 N         140.0787  141.3545  168.4803 N.am    1  UNL1       -0.2783
     12 C         140.3160  141.8232  169.8854 C.2     1  UNL1        0.2397
     13 O         139.8734  140.9779  171.0428 O.2     1  UNL1       -0.2734
     14 C         139.3989  140.0406  168.2327 C.3     1  UNL1        0.0954
     15 C         139.1616  139.5720  166.8276 C.3     1  UNL1        0.0459
     16 C         140.9959  143.1372  170.1330 C.3     1  UNL1        0.1286
     17 C         142.4837  143.1889  170.3168 C.3     1  UNL1        0.0267
     18 N         140.1880  144.3994  170.1967 N.3     1  UNL1       -0.3150
     19 H         140.8072  145.1910  170.3709 H       1  UNL1        0.1192
     20 H         139.5059  144.3288  170.9518 H       1  UNL1        0.1192
     21 N         140.3022  138.1894  160.9342 N.pl3   1  UNL1       -0.2806
     22 H         140.1646  137.2192  160.8392 H       1  UNL1        0.1551
     23 C         141.1264  138.9323  159.9249 C.ar    1  UNL1        0.2208
     24 N         142.0484  138.1815  159.0105 N.ar    1  UNL1       -0.2111
     25 C         142.8725  138.9244  158.0011 C.ar    1  UNL1        0.1147
     26 C         142.7748  140.4182  157.9062 C.ar    1  UNL1        0.0946
     27 CL        143.5989  141.1611  156.8969 Cl      1  UNL1       -0.0790
     28 C         141.8527  141.1691  158.8207 C.ar    1  UNL1        0.0992
     29 N         141.0286  140.4261  159.8299 N.ar    1  UNL1       -0.2126
     30 C         141.7549  142.6629  158.7257 C.ar    1  UNL1        0.0572
     31 C         142.5015  143.6509  159.5722 C.ar    1  UNL1        0.1235
     32 N         142.1014  145.0296  159.1372 N.ar    1  UNL1       -0.1634
     33 N         141.1075  144.8936  158.0220 N.ar    1  UNL1       -0.2281
     34 C         140.3698  145.9127  157.2053 C.ar    1  UNL1        0.1004
     35 C         139.4180  145.4692  156.1342 C.ar    1  UNL1        0.0207
     36 C         139.2039  144.0065  155.8798 C.ar    1  UNL1        0.0031
     37 C         139.9416  142.9874  156.6966 C.ar    1  UNL1        0.0193
     38 C         140.8934  143.4309  157.7677 C.ar    1  UNL1        0.0858
@<TRIPOS>BOND
     1     1     2    1
     2     2     3   ar
     3     3     4   ar
     4     4     8    1
     5     8     9    1
     6     9    10    1
     7    10    11    1
     8    11    12   am
     9    12    13    2
    10    12    16    1
    11    16    17    1
    12    16    18    1
    13    11    14    1
    14    14    15    1
    15     4     5   ar
    16     5     6    1
    17     5     7   ar
    18     7    21    1
    19    21    23    1
    20    23    24   ar
    21    24    25   ar
    22    25    26   ar
    23    26    27    1
    24    26    28   ar
    25    28    30    1
    26    30    31   ar
    27    31    32   ar
    28    32    33   ar
    29    33    34   ar
    30    34    35   ar
    31    35    36   ar
    32    36    37   ar
    33    37    38   ar
    34    28    29   ar
    35     7     2   ar
    36    29    23   ar
    37    15     8    1
    38    38    30   ar
    39    38    33   ar
    40    18    19    1
    41    18    20    1
    42    21    22    1
@<TRIPOS>MOLECULE
*****
 38 42 0 0 0
SMALL
GASTEIGER

@<TRIPOS>ATOM
      1 C         139.4360  137.9941  160.8495 C.3     1  UNL1        0.0553
      2 C         140.4338  138.3071  161.9248 C.ar    1  UNL1        0.0935
      3 N         140.1286  138.5063  163.3799 N.ar    1  UNL1       -0.1727
      4 N         141.4182  138.7982  164.0884 N.ar    1  UNL1       -0.2558
      5 C         142.5204  138.7794  163.0711 C.ar    1  UNL1        0.0704
      6 C         143.9754  139.0216  163.3432 C.3     1  UNL1        0.0531
      7 C         141.9120  138.4759  161.7340 C.ar    1  UNL1        0.0792
      8 C         141.5776  139.0624  165.5563 C.3     1  UNL1        0.1083
      9 C         140.4504  139.6729  166.3351 C.3     1  UNL1        0.0459
     10 C         140.6098  139.9372  167.8031 C.3     1  UNL1        0.0954
     11 N         141.8964  139.5908  168.4920 N.am    1  UNL1       -0.2783
     12 C         142.0558  139.8551  169.9600 C.2     1  UNL1        0.2397
     13 O         143.3424  139.5088  170.6491 O.2     1  UNL1       -0.2734
     14 C         143.0236  138.9803  167.7132 C.3     1  UNL1        0.0954
     15 C         142.8641  138.7161  166.2453 C.3     1  UNL1        0.0459
     16 C         140.9286  140.4657  170.7389 C.3     1  UNL1        0.1286
     17 C         140.9135  141.9419  171.0043 C.3     1  UNL1        0.0267
     18 N         139.8164  139.6000  171.2524 N.3     1  UNL1       -0.3150
     19 H         139.1415  140.1762  171.7553 H       1  UNL1        0.1192
     20 H         140.1978  138.8947  171.8828 H       1  UNL1        0.1192
     21 N         142.6519  138.3614  160.4342 N.pl3   1  UNL1       -0.2806
     22 H         143.0017  137.4887  160.1422 H       1  UNL1        0.1551
     23 C         142.8587  139.5764  159.5793 C.ar    1  UNL1        0.2208
     24 N         143.9162  139.5737  158.5155 N.ar    1  UNL1       -0.2111
     25 C         144.1230  140.7887  157.6605 C.ar    1  UNL1        0.1147
     26 C         143.2724  142.0064  157.8694 C.ar    1  UNL1        0.0946
     27 CL        143.4792  143.2215  157.0144 Cl      1  UNL1       -0.0790
     28 C         142.2148  142.0091  158.9333 C.ar    1  UNL1        0.0992
     29 N         142.0081  140.7941  159.7881 N.ar    1  UNL1       -0.2126
     30 C         141.3642  143.2268  159.1421 C.ar    1  UNL1        0.0572
     31 C         140.5117  143.8953  158.1046 C.ar    1  UNL1        0.1235
     32 N         139.8374  145.0714  158.7465 N.ar    1  UNL1       -0.1634
     33 N         140.2730  145.1298  160.1807 N.ar    1  UNL1       -0.2281
     34 C         139.9324  146.0737  161.2955 C.ar    1  UNL1        0.1004
     35 C         140.5355  145.8776  162.6548 C.ar    1  UNL1        0.0207
     36 C         141.4791  144.7376  162.8993 C.ar    1  UNL1        0.0031
     37 C         141.8197  143.7936  161.7845 C.ar    1  UNL1        0.0193
     38 C         141.2167  143.9897  160.4252 C.ar    1  UNL1        0.0858
@<TRIPOS>BOND
     1     1     2    1
     2     2     3   ar
     3     3     4   ar
     4     4     8    1
     5     8     9    1
     6     9    10    1
     7    10    11    1
     8    11    12   am
     9    12    13    2
    10    12    16    1
    11    16    17    1
    12    16    18    1
    13    11    14    1
    14    14    15    1
    15     4     5   ar
    16     5     6    1
    17     5     7   ar
    18     7    21    1
    19    21    23    1
    20    23    24   ar
    21    24    25   ar
    22    25    26   ar
    23    26    27    1
    24    26    28   ar
    25    28    30    1
    26    30    31   ar
    27    31    32   ar
    28    32    33   ar
    29    33    34   ar
    30    34    35   ar
    31    35    36   ar
    32    36    37   ar
    33    37    38   ar
    34    28    29   ar
    35     7     2   ar
    36    29    23   ar
    37    15     8    1
    38    38    30   ar
    39    38    33   ar
    40    18    19    1
    41    18    20    1
    42    21    22    1
