@<TRIPOS>MOLECULE
*****
 29 32 0 0 0
SMALL
GASTEIGER

@<TRIPOS>ATOM
      1 C         139.2428  138.2387  164.6269 C.ar    1  UNL1        0.0783
      2 C         138.4011  137.4941  165.6204 C.ar    1  UNL1        0.1053
      3 N         138.1944  138.0534  166.9967 N.ar    1  UNL1       -0.2292
      4 C         138.8295  139.3573  167.3797 C.ar    1  UNL1        0.1289
      5 C         139.6712  140.1019  166.3861 C.ar    1  UNL1        0.0380
      6 C         140.4183  141.3995  166.4762 C.ar    1  UNL1        0.0097
      7 C         141.0866  141.6421  165.1554 C.ar    1  UNL1        0.0296
      8 S         140.7526  140.4945  164.2491 S.2     1  UNL1       -0.0866
      9 C         139.8779  139.5425  165.0097 C.ar    1  UNL1        0.0380
     10 C         141.9393  142.8248  164.8028 C.ar    1  UNL1        0.0060
     11 C         141.3366  143.9972  164.0871 C.ar    1  UNL1        0.0005
     12 C         142.1893  145.1798  163.7346 C.ar    1  UNL1        0.0000
     13 C         143.6446  145.1901  164.0976 C.ar    1  UNL1        0.0000
     14 C         144.2473  144.0177  164.8133 C.ar    1  UNL1        0.0000
     15 C         143.3946  142.8350  165.1659 C.ar    1  UNL1        0.0005
     16 N         138.3309  137.7130  162.2515 N.am    1  UNL1       -0.3253
     17 C         139.4494  137.6794  163.2505 C.2     1  UNL1        0.2448
     18 O         140.7746  137.0863  162.8730 O.2     1  UNL1       -0.2703
     19 H         138.4666  137.3459  161.3481 H       1  UNL1        0.1453
     20 H         137.4612  138.1022  162.4993 H       1  UNL1        0.1453
     21 N         138.6228  139.9166  168.7561 N.pl3   1  UNL1       -0.3183
     22 H         137.7256  139.9079  169.1614 H       1  UNL1        0.1482
     23 C         139.7831  140.4891  169.5151 C.3     1  UNL1        0.0861
     24 C         141.0489  139.6973  169.6593 C.3     1  UNL1        0.0224
     25 C         142.2092  140.2698  170.4182 C.3     1  UNL1        0.0188
     26 C         142.1037  141.6339  171.0329 C.3     1  UNL1        0.0687
     27 N         140.8378  142.4257  170.8887 N.3     1  UNL1       -0.2961
     28 C         139.6775  141.8533  170.1298 C.3     1  UNL1        0.0883
     29 H         141.0885  143.3003  170.4277 H       1  UNL1        0.1233
@<TRIPOS>BOND
     1    16    17   am
     2    17    18    2
     3    17     1    1
     4     1     2   ar
     5     2     3   ar
     6     3     4   ar
     7     4    21    1
     8    23    21    1
     9    23    24    1
    10    24    25    1
    11    25    26    1
    12    26    27    1
    13    27    28    1
    14     4     5   ar
    15     5     6   ar
    16     6     7   ar
    17     7    10    1
    18    10    11   ar
    19    11    12   ar
    20    12    13   ar
    21    13    14   ar
    22    14    15   ar
    23     7     8   ar
    24     8     9   ar
    25     9     1   ar
    26    28    23    1
    27     9     5   ar
    28    15    10   ar
    29    16    19    1
    30    16    20    1
    31    21    22    1
    32    27    29    1
@<TRIPOS>MOLECULE
*****
 29 32 0 0 0
SMALL
GASTEIGER

@<TRIPOS>ATOM
      1 C         139.7217  141.0219  169.4427 C.ar    1  UNL1        0.0783
      2 C         138.7307  139.9111  169.6273 C.ar    1  UNL1        0.1053
      3 N         138.1788  139.1922  168.4321 N.ar    1  UNL1       -0.2292
      4 C         138.6178  139.5840  167.0523 C.ar    1  UNL1        0.1289
      5 C         139.6088  140.6948  166.8678 C.ar    1  UNL1        0.0380
      6 C         140.2235  141.2976  165.6395 C.ar    1  UNL1        0.0097
      7 C         141.1553  142.3892  166.0756 C.ar    1  UNL1        0.0296
      8 S         141.1166  142.4609  167.5734 S.2     1  UNL1       -0.0866
      9 C         140.1607  141.4137  168.0630 C.ar    1  UNL1        0.0380
     10 C         141.9810  143.2567  165.1725 C.ar    1  UNL1        0.0060
     11 C         143.4688  143.0754  165.1128 C.ar    1  UNL1        0.0005
     12 C         144.2944  143.9430  164.2096 C.ar    1  UNL1        0.0000
     13 C         143.6323  144.9919  163.3661 C.ar    1  UNL1        0.0000
     14 C         142.1445  145.1732  163.4258 C.ar    1  UNL1        0.0000
     15 C         141.3189  144.3056  164.3290 C.ar    1  UNL1        0.0005
     16 N         139.6703  143.0429  171.0746 N.am    1  UNL1       -0.3253
     17 C         140.2736  141.7408  170.6379 C.2     1  UNL1        0.2448
     18 O         141.4289  141.1576  171.3966 O.2     1  UNL1       -0.2703
     19 H         140.0326  143.5148  171.8590 H       1  UNL1        0.1453
     20 H         138.9121  143.4256  170.5767 H       1  UNL1        0.1453
     21 N         138.0658  138.8650  165.8572 N.pl3   1  UNL1       -0.3183
     22 H         137.1010  138.6784  165.7972 H       1  UNL1        0.1482
     23 C         138.9838  138.4302  164.7534 C.3     1  UNL1        0.0861
     24 C         140.1856  137.5885  165.0654 C.3     1  UNL1        0.0224
     25 C         141.1036  137.1537  163.9617 C.3     1  UNL1        0.0188
     26 C         140.8199  137.5606  162.5461 C.3     1  UNL1        0.0687
     27 N         139.6182  138.4023  162.2342 N.3     1  UNL1       -0.2961
     28 C         138.7001  138.8371  163.3378 C.3     1  UNL1        0.0883
     29 H         139.0518  137.8728  161.5715 H       1  UNL1        0.1233
@<TRIPOS>BOND
     1    16    17   am
     2    17    18    2
     3    17     1    1
     4     1     2   ar
     5     2     3   ar
     6     3     4   ar
     7     4    21    1
     8    23    21    1
     9    23    24    1
    10    24    25    1
    11    25    26    1
    12    26    27    1
    13    27    28    1
    14     4     5   ar
    15     5     6   ar
    16     6     7   ar
    17     7    10    1
    18    10    11   ar
    19    11    12   ar
    20    12    13   ar
    21    13    14   ar
    22    14    15   ar
    23     7     8   ar
    24     8     9   ar
    25     9     1   ar
    26    28    23    1
    27     9     5   ar
    28    15    10   ar
    29    16    19    1
    30    16    20    1
    31    21    22    1
    32    27    29    1
@<TRIPOS>MOLECULE
*****
 29 32 0 0 0
SMALL
GASTEIGER

@<TRIPOS>ATOM
      1 C         141.3717  140.8207  169.5348 C.ar    1  UNL1        0.0783
      2 C         142.1440  139.5846  169.8892 C.ar    1  UNL1        0.1053
      3 N         142.8833  138.8309  168.8238 N.ar    1  UNL1       -0.2292
      4 C         142.8505  139.3133  167.4038 C.ar    1  UNL1        0.1289
      5 C         142.0783  140.5494  167.0494 C.ar    1  UNL1        0.0380
      6 C         141.8647  141.2601  165.7458 C.ar    1  UNL1        0.0097
      7 C         140.9934  142.4531  166.0056 C.ar    1  UNL1        0.0296
      8 S         140.6684  142.4797  167.4698 S.2     1  UNL1       -0.0866
      9 C         141.3389  141.3032  168.1148 C.ar    1  UNL1        0.0380
     10 C         140.5286  143.4453  164.9812 C.ar    1  UNL1        0.0060
     11 C         139.0613  143.6421  164.7393 C.ar    1  UNL1        0.0005
     12 C         138.5966  144.6343  163.7148 C.ar    1  UNL1        0.0000
     13 C         139.5990  145.4298  162.9323 C.ar    1  UNL1        0.0000
     14 C         141.0662  145.2330  163.1741 C.ar    1  UNL1        0.0000
     15 C         141.5310  144.2408  164.1986 C.ar    1  UNL1        0.0005
     16 N         139.1344  141.6453  170.5665 N.am    1  UNL1       -0.3253
     17 C         140.6323  141.5745  170.6002 C.2     1  UNL1        0.2448
     18 O         141.3910  142.2574  171.6995 O.2     1  UNL1       -0.2703
     19 H         138.6491  142.1400  171.2658 H       1  UNL1        0.1453
     20 H         138.6365  141.1971  169.8451 H       1  UNL1        0.1453
     21 N         143.5899  138.5595  166.3384 N.pl3   1  UNL1       -0.3183
     22 H         144.5049  138.2380  166.5078 H       1  UNL1        0.1482
     23 C         142.9353  138.2957  165.0148 C.3     1  UNL1        0.0861
     24 C         141.6457  137.5320  164.9550 C.3     1  UNL1        0.0224
     25 C         140.9910  137.2681  163.6315 C.3     1  UNL1        0.0188
     26 C         141.6259  137.7678  162.3678 C.3     1  UNL1        0.0687
     27 N         142.9156  138.5315  162.4276 N.3     1  UNL1       -0.2961
     28 C         143.5703  138.7954  163.7511 C.3     1  UNL1        0.0883
     29 H         142.7396  139.4405  161.9997 H       1  UNL1        0.1233
@<TRIPOS>BOND
     1    16    17   am
     2    17    18    2
     3    17     1    1
     4     1     2   ar
     5     2     3   ar
     6     3     4   ar
     7     4    21    1
     8    23    21    1
     9    23    24    1
    10    24    25    1
    11    25    26    1
    12    26    27    1
    13    27    28    1
    14     4     5   ar
    15     5     6   ar
    16     6     7   ar
    17     7    10    1
    18    10    11   ar
    19    11    12   ar
    20    12    13   ar
    21    13    14   ar
    22    14    15   ar
    23     7     8   ar
    24     8     9   ar
    25     9     1   ar
    26    28    23    1
    27     9     5   ar
    28    15    10   ar
    29    16    19    1
    30    16    20    1
    31    21    22    1
    32    27    29    1
@<TRIPOS>MOLECULE
*****
 29 32 0 0 0
SMALL
GASTEIGER

@<TRIPOS>ATOM
      1 C         140.3501  140.5537  169.9852 C.ar    1  UNL1        0.0783
      2 C         138.9668  140.0290  170.2319 C.ar    1  UNL1        0.1053
      3 N         138.1500  139.5014  169.0899 N.ar    1  UNL1       -0.2292
      4 C         138.7164  139.4985  167.7009 C.ar    1  UNL1        0.1289
      5 C         140.0998  140.0233  167.4542 C.ar    1  UNL1        0.0380
      6 C         140.9180  140.1468  166.2031 C.ar    1  UNL1        0.0097
      7 C         142.2405  140.7508  166.5720 C.ar    1  UNL1        0.0296
      8 S         142.2397  141.0005  168.0510 S.2     1  UNL1       -0.0866
      9 C         140.9166  140.5509  168.5963 C.ar    1  UNL1        0.0380
     10 C         143.3663  141.0521  165.6276 C.ar    1  UNL1        0.0060
     11 C         143.8218  142.4677  165.4310 C.ar    1  UNL1        0.0005
     12 C         144.9476  142.7690  164.4866 C.ar    1  UNL1        0.0000
     13 C         145.6179  141.6548  163.7388 C.ar    1  UNL1        0.0000
     14 C         145.1624  140.2392  163.9354 C.ar    1  UNL1        0.0000
     15 C         144.0366  139.9379  164.8798 C.ar    1  UNL1        0.0005
     16 N         142.4636  140.4204  171.4903 N.am    1  UNL1       -0.3253
     17 C         141.1669  141.0814  171.1273 C.2     1  UNL1        0.2448
     18 O         140.6871  142.2700  171.9064 O.2     1  UNL1       -0.2703
     19 H         142.9997  140.7667  172.2399 H       1  UNL1        0.1453
     20 H         142.7786  139.6403  170.9789 H       1  UNL1        0.1453
     21 N         137.8995  138.9708  166.5589 N.pl3   1  UNL1       -0.3183
     22 H         136.9681  138.6894  166.7086 H       1  UNL1        0.1482
     23 C         138.5018  138.8720  165.1887 C.3     1  UNL1        0.0861
     24 C         139.2616  137.6415  164.7904 C.3     1  UNL1        0.0224
     25 C         139.8639  137.5426  163.4203 C.3     1  UNL1        0.0188
     26 C         139.7064  138.6742  162.4483 C.3     1  UNL1        0.0687
     27 N         138.9465  139.9047  162.8465 N.3     1  UNL1       -0.2961
     28 C         138.3443  140.0036  164.2167 C.3     1  UNL1        0.0883
     29 H         138.1809  140.0065  162.1803 H       1  UNL1        0.1233
@<TRIPOS>BOND
     1    16    17   am
     2    17    18    2
     3    17     1    1
     4     1     2   ar
     5     2     3   ar
     6     3     4   ar
     7     4    21    1
     8    23    21    1
     9    23    24    1
    10    24    25    1
    11    25    26    1
    12    26    27    1
    13    27    28    1
    14     4     5   ar
    15     5     6   ar
    16     6     7   ar
    17     7    10    1
    18    10    11   ar
    19    11    12   ar
    20    12    13   ar
    21    13    14   ar
    22    14    15   ar
    23     7     8   ar
    24     8     9   ar
    25     9     1   ar
    26    28    23    1
    27     9     5   ar
    28    15    10   ar
    29    16    19    1
    30    16    20    1
    31    21    22    1
    32    27    29    1
@<TRIPOS>MOLECULE
*****
 29 32 0 0 0
SMALL
GASTEIGER

@<TRIPOS>ATOM
      1 C         141.6212  139.9485  169.2800 C.ar    1  UNL1        0.0783
      2 C         142.6951  138.9089  169.4070 C.ar    1  UNL1        0.1053
      3 N         143.3520  138.3552  168.1775 N.ar    1  UNL1       -0.2292
      4 C         142.9351  138.8409  166.8209 C.ar    1  UNL1        0.1289
      5 C         141.8613  139.8805  166.6939 C.ar    1  UNL1        0.0380
      6 C         141.2457  140.5468  165.4993 C.ar    1  UNL1        0.0097
      7 C         140.2083  141.5125  165.9906 C.ar    1  UNL1        0.0296
      8 S         140.1827  141.4429  167.4887 S.2     1  UNL1       -0.0866
      9 C         141.2043  140.4342  167.9234 C.ar    1  UNL1        0.0380
     10 C         139.3476  142.3931  165.1340 C.ar    1  UNL1        0.0060
     11 C         138.4189  141.7830  164.1265 C.ar    1  UNL1        0.0005
     12 C         137.5583  142.6637  163.2699 C.ar    1  UNL1        0.0000
     13 C         137.6262  144.1545  163.4210 C.ar    1  UNL1        0.0000
     14 C         138.5549  144.7647  164.4286 C.ar    1  UNL1        0.0000
     15 C         139.4156  143.8839  165.2851 C.ar    1  UNL1        0.0005
     16 N         139.9706  139.6725  171.2673 N.am    1  UNL1       -0.3253
     17 C         140.9642  140.5022  170.5095 C.2     1  UNL1        0.2448
     18 O         141.3010  141.8858  170.9813 O.2     1  UNL1       -0.2703
     19 H         139.5394  140.0360  172.0743 H       1  UNL1        0.1453
     20 H         139.7496  138.7645  170.9576 H       1  UNL1        0.1453
     21 N         143.5922  138.2871  165.5914 N.pl3   1  UNL1       -0.3183
     22 H         143.7663  137.3208  165.5192 H       1  UNL1        0.1482
     23 C         143.9838  139.2055  164.4720 C.3     1  UNL1        0.0861
     24 C         144.9018  140.3618  164.7370 C.3     1  UNL1        0.0224
     25 C         145.2936  141.2802  163.6176 C.3     1  UNL1        0.0188
     26 C         144.7673  141.0424  162.2333 C.3     1  UNL1        0.0687
     27 N         143.8493  139.8860  161.9683 N.3     1  UNL1       -0.2961
     28 C         143.4576  138.9676  163.0876 C.3     1  UNL1        0.0883
     29 H         144.2999  139.3091  161.2580 H       1  UNL1        0.1233
@<TRIPOS>BOND
     1    16    17   am
     2    17    18    2
     3    17     1    1
     4     1     2   ar
     5     2     3   ar
     6     3     4   ar
     7     4    21    1
     8    23    21    1
     9    23    24    1
    10    24    25    1
    11    25    26    1
    12    26    27    1
    13    27    28    1
    14     4     5   ar
    15     5     6   ar
    16     6     7   ar
    17     7    10    1
    18    10    11   ar
    19    11    12   ar
    20    12    13   ar
    21    13    14   ar
    22    14    15   ar
    23     7     8   ar
    24     8     9   ar
    25     9     1   ar
    26    28    23    1
    27     9     5   ar
    28    15    10   ar
    29    16    19    1
    30    16    20    1
    31    21    22    1
    32    27    29    1
@<TRIPOS>MOLECULE
*****
 29 32 0 0 0
SMALL
GASTEIGER

@<TRIPOS>ATOM
      1 C         138.9621  139.0940  164.2870 C.ar    1  UNL1        0.0783
      2 C         138.1542  139.3565  163.0508 C.ar    1  UNL1        0.1053
      3 N         137.8309  140.7657  162.6513 N.ar    1  UNL1       -0.2292
      4 C         138.3155  141.9125  163.4881 C.ar    1  UNL1        0.1289
      5 C         139.1234  141.6499  164.7243 C.ar    1  UNL1        0.0380
      6 C         139.7332  142.5709  165.7392 C.ar    1  UNL1        0.0097
      7 C         140.4333  141.7309  166.7659 C.ar    1  UNL1        0.0296
      8 S         140.2563  140.2907  166.3856 S.2     1  UNL1       -0.0866
      9 C         139.4467  140.2407  165.1238 C.ar    1  UNL1        0.0380
     10 C         141.1795  142.2414  167.9628 C.ar    1  UNL1        0.0060
     11 C         142.6152  141.8598  168.1704 C.ar    1  UNL1        0.0005
     12 C         143.3614  142.3703  169.3673 C.ar    1  UNL1        0.0000
     13 C         142.6719  143.2624  170.3567 C.ar    1  UNL1        0.0000
     14 C         141.2362  143.6439  170.1491 C.ar    1  UNL1        0.0000
     15 C         140.4900  143.1334  168.9521 C.ar    1  UNL1        0.0005
     16 N         140.5088  137.0118  164.1386 N.am    1  UNL1       -0.3253
     17 C         139.2853  137.6848  164.6865 C.2     1  UNL1        0.2448
     18 O         138.3851  136.9485  165.6340 O.2     1  UNL1       -0.2703
     19 H         140.7210  136.0869  164.4008 H       1  UNL1        0.1453
     20 H         141.0996  137.4950  163.5168 H       1  UNL1        0.1453
     21 N         137.9922  143.3217  163.0885 N.pl3   1  UNL1       -0.3183
     22 H         137.1804  143.7577  163.4351 H       1  UNL1        0.1482
     23 C         138.9057  144.0666  162.1608 C.3     1  UNL1        0.0861
     24 C         139.3203  143.4471  160.8591 C.3     1  UNL1        0.0224
     25 C         140.2338  144.1919  159.9314 C.3     1  UNL1        0.0188
     26 C         140.7328  145.5562  160.3054 C.3     1  UNL1        0.0687
     27 N         140.3182  146.1756  161.6071 N.3     1  UNL1       -0.2961
     28 C         139.4047  145.4308  162.5348 C.3     1  UNL1        0.0883
     29 H         139.8541  147.0551  161.3801 H       1  UNL1        0.1233
@<TRIPOS>BOND
     1    16    17   am
     2    17    18    2
     3    17     1    1
     4     1     2   ar
     5     2     3   ar
     6     3     4   ar
     7     4    21    1
     8    23    21    1
     9    23    24    1
    10    24    25    1
    11    25    26    1
    12    26    27    1
    13    27    28    1
    14     4     5   ar
    15     5     6   ar
    16     6     7   ar
    17     7    10    1
    18    10    11   ar
    19    11    12   ar
    20    12    13   ar
    21    13    14   ar
    22    14    15   ar
    23     7     8   ar
    24     8     9   ar
    25     9     1   ar
    26    28    23    1
    27     9     5   ar
    28    15    10   ar
    29    16    19    1
    30    16    20    1
    31    21    22    1
    32    27    29    1
@<TRIPOS>MOLECULE
*****
 29 32 0 0 0
SMALL
GASTEIGER

@<TRIPOS>ATOM
      1 C         139.3976  144.1187  162.4153 C.ar    1  UNL1        0.0783
      2 C         138.6345  143.4039  161.3398 C.ar    1  UNL1        0.1053
      3 N         138.1880  141.9878  161.5518 N.ar    1  UNL1       -0.2292
      4 C         138.5046  141.2862  162.8393 C.ar    1  UNL1        0.1289
      5 C         139.2678  142.0010  163.9148 C.ar    1  UNL1        0.0380
      6 C         139.7227  141.5706  165.2778 C.ar    1  UNL1        0.0097
      7 C         140.4504  142.7208  165.9082 C.ar    1  UNL1        0.0296
      8 S         140.4452  143.8621  164.9348 S.2     1  UNL1       -0.0866
      9 C         139.7143  143.4172  163.7028 C.ar    1  UNL1        0.0380
     10 C         141.0738  142.7285  167.2725 C.ar    1  UNL1        0.0060
     11 C         142.4793  142.2381  167.4576 C.ar    1  UNL1        0.0005
     12 C         143.1026  142.2458  168.8220 C.ar    1  UNL1        0.0000
     13 C         142.3206  142.7438  170.0011 C.ar    1  UNL1        0.0000
     14 C         140.9152  143.2342  169.8160 C.ar    1  UNL1        0.0000
     15 C         140.2918  143.2265  168.4517 C.ar    1  UNL1        0.0005
     16 N         141.0977  146.0324  162.8599 N.am    1  UNL1       -0.3253
     17 C         139.8441  145.5349  162.2033 C.2     1  UNL1        0.2448
     18 O         139.0370  146.4538  161.3347 O.2     1  UNL1       -0.2703
     19 H         141.3907  146.9619  162.7207 H       1  UNL1        0.1453
     20 H         141.6274  145.4293  163.4300 H       1  UNL1        0.1453
     21 N         138.0581  139.8700  163.0512 N.pl3   1  UNL1       -0.3183
     22 H         137.0993  139.6476  163.0290 H       1  UNL1        0.1482
     23 C         139.0723  138.7926  163.2969 C.3     1  UNL1        0.0861
     24 C         139.1701  138.1487  164.6482 C.3     1  UNL1        0.0224
     25 C         140.1843  137.0713  164.8940 C.3     1  UNL1        0.0188
     26 C         141.1009  136.6378  163.7886 C.3     1  UNL1        0.0687
     27 N         141.0031  137.2817  162.4373 N.3     1  UNL1       -0.2961
     28 C         139.9889  138.3591  162.1915 C.3     1  UNL1        0.0883
     29 H         140.8084  136.5359  161.7692 H       1  UNL1        0.1233
@<TRIPOS>BOND
     1    16    17   am
     2    17    18    2
     3    17     1    1
     4     1     2   ar
     5     2     3   ar
     6     3     4   ar
     7     4    21    1
     8    23    21    1
     9    23    24    1
    10    24    25    1
    11    25    26    1
    12    26    27    1
    13    27    28    1
    14     4     5   ar
    15     5     6   ar
    16     6     7   ar
    17     7    10    1
    18    10    11   ar
    19    11    12   ar
    20    12    13   ar
    21    13    14   ar
    22    14    15   ar
    23     7     8   ar
    24     8     9   ar
    25     9     1   ar
    26    28    23    1
    27     9     5   ar
    28    15    10   ar
    29    16    19    1
    30    16    20    1
    31    21    22    1
    32    27    29    1
@<TRIPOS>MOLECULE
*****
 29 32 0 0 0
SMALL
GASTEIGER

@<TRIPOS>ATOM
      1 C         140.8595  138.9135  163.1740 C.ar    1  UNL1        0.0783
      2 C         141.4156  139.2542  161.8232 C.ar    1  UNL1        0.1053
      3 N         141.9803  140.6200  161.5673 N.ar    1  UNL1       -0.2292
      4 C         141.9889  141.6453  162.6622 C.ar    1  UNL1        0.1289
      5 C         141.4328  141.3046  164.0130 C.ar    1  UNL1        0.0380
      6 C         141.3067  142.1026  165.2768 C.ar    1  UNL1        0.0097
      7 C         140.6641  141.2299  166.3138 C.ar    1  UNL1        0.0296
      8 S         140.3930  139.8926  165.6909 S.2     1  UNL1       -0.0866
      9 C         140.8681  139.9387  164.2689 C.ar    1  UNL1        0.0380
     10 C         140.3480  141.6251  167.7259 C.ar    1  UNL1        0.0060
     11 C         140.6650  143.0104  168.2058 C.ar    1  UNL1        0.0005
     12 C         140.3489  143.4056  169.6179 C.ar    1  UNL1        0.0000
     13 C         139.7157  142.4155  170.5500 C.ar    1  UNL1        0.0000
     14 C         139.3987  141.0302  170.0701 C.ar    1  UNL1        0.0000
     15 C         139.7148  140.6350  168.6580 C.ar    1  UNL1        0.0005
     16 N         141.1882  136.4461  163.9183 N.am    1  UNL1       -0.3253
     17 C         140.2948  137.5476  163.4299 C.2     1  UNL1        0.2448
     18 O         138.8367  137.2832  163.1972 O.2     1  UNL1       -0.2703
     19 H         140.8176  135.5497  164.0863 H       1  UNL1        0.1453
     20 H         142.1452  136.6197  164.0710 H       1  UNL1        0.1453
     21 N         142.5537  143.0112  162.4062 N.pl3   1  UNL1       -0.3183
     22 H         143.5235  143.1643  162.4784 H       1  UNL1        0.1482
     23 C         141.6408  144.1437  162.0402 C.3     1  UNL1        0.0861
     24 C         141.0603  144.2228  160.6593 C.3     1  UNL1        0.0224
     25 C         140.1474  145.3553  160.2932 C.3     1  UNL1        0.0188
     26 C         139.8149  146.4086  161.3080 C.3     1  UNL1        0.0687
     27 N         140.3953  146.3295  162.6889 N.3     1  UNL1       -0.2961
     28 C         141.3083  145.1971  163.0550 C.3     1  UNL1        0.0883
     29 H         139.6088  146.2951  163.3374 H       1  UNL1        0.1233
@<TRIPOS>BOND
     1    16    17   am
     2    17    18    2
     3    17     1    1
     4     1     2   ar
     5     2     3   ar
     6     3     4   ar
     7     4    21    1
     8    23    21    1
     9    23    24    1
    10    24    25    1
    11    25    26    1
    12    26    27    1
    13    27    28    1
    14     4     5   ar
    15     5     6   ar
    16     6     7   ar
    17     7    10    1
    18    10    11   ar
    19    11    12   ar
    20    12    13   ar
    21    13    14   ar
    22    14    15   ar
    23     7     8   ar
    24     8     9   ar
    25     9     1   ar
    26    28    23    1
    27     9     5   ar
    28    15    10   ar
    29    16    19    1
    30    16    20    1
    31    21    22    1
    32    27    29    1
@<TRIPOS>MOLECULE
*****
 29 32 0 0 0
SMALL
GASTEIGER

@<TRIPOS>ATOM
      1 C         143.7445  143.3497  164.2457 C.ar    1  UNL1        0.0783
      2 C         144.4992  143.6960  165.4949 C.ar    1  UNL1        0.1053
      3 N         144.1892  142.9864  166.7795 N.ar    1  UNL1       -0.2292
      4 C         143.1245  141.9303  166.8150 C.ar    1  UNL1        0.1289
      5 C         142.3698  141.5840  165.5657 C.ar    1  UNL1        0.0380
      6 C         141.2750  140.5947  165.2963 C.ar    1  UNL1        0.0097
      7 C         140.9084  140.6929  163.8451 C.ar    1  UNL1        0.0296
      8 S         141.7766  141.7430  163.2177 S.2     1  UNL1       -0.0866
      9 C         142.6798  142.2937  164.2811 C.ar    1  UNL1        0.0380
     10 C         139.8580  139.8833  163.1443 C.ar    1  UNL1        0.0060
     11 C         139.6540  138.4427  163.5091 C.ar    1  UNL1        0.0005
     12 C         138.6035  137.6331  162.8082 C.ar    1  UNL1        0.0000
     13 C         137.7571  138.2641  161.7426 C.ar    1  UNL1        0.0000
     14 C         137.9611  139.7047  161.3779 C.ar    1  UNL1        0.0000
     15 C         139.0115  140.5143  162.0787 C.ar    1  UNL1        0.0005
     16 N         143.6955  145.5067  162.7983 N.am    1  UNL1       -0.3253
     17 C         144.0545  144.0594  162.9611 C.2     1  UNL1        0.2448
     18 O         144.7236  143.3218  161.8393 O.2     1  UNL1       -0.2703
     19 H         143.8990  145.9725  161.9551 H       1  UNL1        0.1453
     20 H         143.2564  145.9908  163.5345 H       1  UNL1        0.1453
     21 N         142.8145  141.2206  168.0996 N.pl3   1  UNL1       -0.3183
     22 H         143.3138  140.4088  168.3464 H       1  UNL1        0.1482
     23 C         141.7439  141.7479  169.0083 C.3     1  UNL1        0.0861
     24 C         141.3629  143.1978  168.9561 C.3     1  UNL1        0.0224
     25 C         140.2923  143.7251  169.8647 C.3     1  UNL1        0.0188
     26 C         139.6026  142.8026  170.8256 C.3     1  UNL1        0.0687
     27 N         139.9836  141.3527  170.8778 N.3     1  UNL1       -0.2961
     28 C         141.0542  140.8253  169.9691 C.3     1  UNL1        0.0883
     29 H         139.1380  140.8187  170.6774 H       1  UNL1        0.1233
@<TRIPOS>BOND
     1    16    17   am
     2    17    18    2
     3    17     1    1
     4     1     2   ar
     5     2     3   ar
     6     3     4   ar
     7     4    21    1
     8    23    21    1
     9    23    24    1
    10    24    25    1
    11    25    26    1
    12    26    27    1
    13    27    28    1
    14     4     5   ar
    15     5     6   ar
    16     6     7   ar
    17     7    10    1
    18    10    11   ar
    19    11    12   ar
    20    12    13   ar
    21    13    14   ar
    22    14    15   ar
    23     7     8   ar
    24     8     9   ar
    25     9     1   ar
    26    28    23    1
    27     9     5   ar
    28    15    10   ar
    29    16    19    1
    30    16    20    1
    31    21    22    1
    32    27    29    1
