@<TRIPOS>MOLECULE
*****
 34 37 0 0 0
SMALL
GASTEIGER

@<TRIPOS>ATOM
      1 C         141.2562  140.5700  168.3846 C.ar    1  UNL1        0.0685
      2 C         140.9461  140.4786  169.8493 C.ar    1  UNL1        0.0885
      3 C         139.5960  140.0074  170.3020 C.ar    1  UNL1        0.1263
      4 N         138.5559  139.6275  169.2901 N.ar    1  UNL1       -0.1633
      5 N         138.8661  139.7189  167.8254 N.ar    1  UNL1       -0.2270
      6 C         138.0481  139.4149  166.6053 C.ar    1  UNL1        0.1005
      7 C         138.8927  139.6983  165.3986 C.ar    1  UNL1        0.0229
      8 C         140.2327  140.1774  165.8728 C.ar    1  UNL1        0.0220
      9 C         140.2162  140.1902  167.3726 C.ar    1  UNL1        0.0961
     10 C         138.4713  139.5318  163.9686 C.ar    1  UNL1        0.0290
     11 C         138.6766  138.2180  163.2744 C.ar    1  UNL1        0.0023
     12 C         138.2552  138.0516  161.8444 C.ar    1  UNL1        0.0001
     13 C         137.6285  139.1988  161.1087 C.ar    1  UNL1        0.0023
     14 C         137.4233  140.5125  161.8030 C.ar    1  UNL1        0.0296
     15 C         137.8447  140.6790  163.2329 C.ar    1  UNL1        0.1401
     16 F         137.6395  141.9927  163.9272 F       1  UNL1       -0.2042
     17 C         141.9862  140.8584  170.8613 C.2     1  UNL1        0.2456
     18 N         143.1825  139.9789  171.0735 N.am    1  UNL1       -0.3252
     19 O         141.8299  142.1177  171.6609 O.2     1  UNL1       -0.2703
     20 H         143.2851  139.1523  170.5486 H       1  UNL1        0.1453
     21 H         143.8652  140.2281  171.7376 H       1  UNL1        0.1453
     22 N         142.6064  141.0412  167.9318 N.pl3   1  UNL1       -0.3327
     23 H         143.0795  141.7400  168.4390 H       1  UNL1        0.1468
     24 C         143.2972  142.4122  166.2976 C.3     1  UNL1        0.0029
     25 C         143.7519  141.2111  165.5226 C.3     1  UNL1        0.0282
     26 C         144.1729  142.2255  164.5010 C.3     1  UNL1        0.0029
     27 C         143.2358  140.4479  166.7063 C.3     1  UNL1        0.0702
     28 C         143.4596  138.9871  166.4494 C.3     1  UNL1        0.0208
     29 C         144.1140  138.8475  165.1069 C.3     1  UNL1        0.0160
     30 C         144.2946  140.2221  164.5342 C.3     1  UNL1        0.0404
     31 C         144.6022  141.4432  163.7191 C.3     1  UNL1        0.0156
     32 N         144.9017  139.4883  163.3753 N.3     1  UNL1       -0.3231
     33 H         144.8819  138.4853  163.5599 H       1  UNL1        0.1188
     34 H         145.8673  139.7917  163.2488 H       1  UNL1        0.1188
@<TRIPOS>BOND
     1    24    25    1
     2    25    26    1
     3    25    27    1
     4    27    22    1
     5    22     1    1
     6     1     2   ar
     7     2    17    1
     8    17    18   am
     9    17    19    2
    10     2     3   ar
    11     3     4   ar
    12     4     5   ar
    13     5     6   ar
    14     6     7   ar
    15     7    10    1
    16    10    11   ar
    17    11    12   ar
    18    12    13   ar
    19    13    14   ar
    20    14    15   ar
    21    15    16    1
    22     7     8   ar
    23     8     9   ar
    24    27    28    1
    25    28    29    1
    26    29    30    1
    27    30    31    1
    28    30    32    1
    29    30    25    1
    30     9     1   ar
    31     9     5   ar
    32    15    10   ar
    33    22    23    1
    34    18    20    1
    35    18    21    1
    36    32    33    1
    37    32    34    1
@<TRIPOS>MOLECULE
*****
 34 37 0 0 0
SMALL
GASTEIGER

@<TRIPOS>ATOM
      1 C         141.6029  139.8167  167.8304 C.ar    1  UNL1        0.0685
      2 C         141.3209  139.8617  169.3030 C.ar    1  UNL1        0.0885
      3 C         139.9041  139.8693  169.7954 C.ar    1  UNL1        0.1263
      4 N         138.7692  139.8318  168.8153 N.ar    1  UNL1       -0.1633
      5 N         139.0511  139.7867  167.3428 N.ar    1  UNL1       -0.2270
      6 C         138.1450  139.7437  166.1482 C.ar    1  UNL1        0.1005
      7 C         139.0018  139.7096  164.9175 C.ar    1  UNL1        0.0229
      8 C         140.4375  139.7315  165.3514 C.ar    1  UNL1        0.0220
      9 C         140.4680  139.7792  166.8503 C.ar    1  UNL1        0.0961
     10 C         138.5094  139.6619  163.5014 C.ar    1  UNL1        0.0290
     11 C         138.1585  140.9329  162.7862 C.ar    1  UNL1        0.0023
     12 C         137.6660  140.8851  161.3701 C.ar    1  UNL1        0.0001
     13 C         137.5245  139.5665  160.6692 C.ar    1  UNL1        0.0023
     14 C         137.8754  138.2956  161.3845 C.ar    1  UNL1        0.0296
     15 C         138.3678  138.3433  162.8006 C.ar    1  UNL1        0.1401
     16 F         138.7187  137.0724  163.5158 F       1  UNL1       -0.2042
     17 C         142.4559  139.8992  170.2831 C.2     1  UNL1        0.2456
     18 N         142.6511  141.1013  171.1588 N.am    1  UNL1       -0.3252
     19 O         143.3955  138.7348  170.3875 O.2     1  UNL1       -0.2703
     20 H         142.0343  141.8657  171.0903 H       1  UNL1        0.1453
     21 H         143.3960  141.1260  171.8021 H       1  UNL1        0.1453
     22 N         143.0197  139.8091  167.3380 N.pl3   1  UNL1       -0.3327
     23 H         143.6676  139.1693  167.7123 H       1  UNL1        0.1468
     24 C         144.0130  139.0170  165.4904 C.3     1  UNL1        0.0029
     25 C         144.1243  140.4241  164.9828 C.3     1  UNL1        0.0282
     26 C         144.7758  139.7774  163.7965 C.3     1  UNL1        0.0029
     27 C         143.4495  140.7766  166.2752 C.3     1  UNL1        0.0702
     28 C         143.2800  142.2664  166.3184 C.3     1  UNL1        0.0208
     29 C         143.8500  142.8346  165.0526 C.3     1  UNL1        0.0160
     30 C         144.3718  141.6960  164.2272 C.3     1  UNL1        0.0404
     31 C         144.9715  140.7834  163.1988 C.3     1  UNL1        0.0156
     32 N         144.7447  142.7771  163.2566 N.3     1  UNL1       -0.3231
     33 H         144.4677  143.6833  163.6341 H       1  UNL1        0.1188
     34 H         144.2665  142.6176  162.3698 H       1  UNL1        0.1188
@<TRIPOS>BOND
     1    24    25    1
     2    25    26    1
     3    25    27    1
     4    27    22    1
     5    22     1    1
     6     1     2   ar
     7     2    17    1
     8    17    18   am
     9    17    19    2
    10     2     3   ar
    11     3     4   ar
    12     4     5   ar
    13     5     6   ar
    14     6     7   ar
    15     7    10    1
    16    10    11   ar
    17    11    12   ar
    18    12    13   ar
    19    13    14   ar
    20    14    15   ar
    21    15    16    1
    22     7     8   ar
    23     8     9   ar
    24    27    28    1
    25    28    29    1
    26    29    30    1
    27    30    31    1
    28    30    32    1
    29    30    25    1
    30     9     1   ar
    31     9     5   ar
    32    15    10   ar
    33    22    23    1
    34    18    20    1
    35    18    21    1
    36    32    33    1
    37    32    34    1
@<TRIPOS>MOLECULE
*****
 34 37 0 0 0
SMALL
GASTEIGER

@<TRIPOS>ATOM
      1 C         140.7177  143.8407  160.2494 C.ar    1  UNL1        0.0685
      2 C         140.3352  144.3052  158.8753 C.ar    1  UNL1        0.0885
      3 C         139.2133  143.6326  158.1415 C.ar    1  UNL1        0.1263
      4 N         138.4736  142.4954  158.7816 N.ar    1  UNL1       -0.1633
      5 N         138.8561  142.0309  160.1556 N.ar    1  UNL1       -0.2270
      6 C         138.3132  140.9435  161.0348 C.ar    1  UNL1        0.1005
      7 C         139.0997  140.9442  162.3120 C.ar    1  UNL1        0.0229
      8 C         140.1287  142.0319  162.2223 C.ar    1  UNL1        0.0220
      9 C         139.9781  142.7035  160.8895 C.ar    1  UNL1        0.0961
     10 C         138.8935  140.0194  163.4749 C.ar    1  UNL1        0.0290
     11 C         139.2663  138.5713  163.3569 C.ar    1  UNL1        0.0023
     12 C         139.0600  137.6466  164.5198 C.ar    1  UNL1        0.0001
     13 C         138.4811  138.1700  165.8008 C.ar    1  UNL1        0.0023
     14 C         138.1084  139.6181  165.9189 C.ar    1  UNL1        0.0296
     15 C         138.3146  140.5428  164.7559 C.ar    1  UNL1        0.1401
     16 F         137.9419  141.9910  164.8740 F       1  UNL1       -0.2042
     17 C         141.0749  145.4425  158.2352 C.2     1  UNL1        0.2456
     18 N         140.3183  146.5149  157.5089 N.am    1  UNL1       -0.3252
     19 O         142.5709  145.5072  158.3214 O.2     1  UNL1       -0.2703
     20 H         139.3364  146.4724  157.4524 H       1  UNL1        0.1453
     21 H         140.8037  147.2613  157.0888 H       1  UNL1        0.1453
     22 N         141.8397  144.5134  160.9832 N.pl3   1  UNL1       -0.3327
     23 H         141.7972  145.4793  161.1691 H       1  UNL1        0.1468
     24 C         142.5236  144.6968  163.1107 C.3     1  UNL1        0.0029
     25 C         143.6174  143.7146  162.8127 C.3     1  UNL1        0.0282
     26 C         143.9795  143.9201  164.2537 C.3     1  UNL1        0.0029
     27 C         143.0266  143.7144  161.4340 C.3     1  UNL1        0.0702
     28 C         143.8309  142.7751  160.5851 C.3     1  UNL1        0.0208
     29 C         144.9189  142.1947  161.4392 C.3     1  UNL1        0.0160
     30 C         144.7869  142.7754  162.8159 C.3     1  UNL1        0.0404
     31 C         144.9045  143.1772  164.2563 C.3     1  UNL1        0.0156
     32 N         145.9810  141.9201  163.1203 N.3     1  UNL1       -0.3231
     33 H         146.2563  141.4096  162.2812 H       1  UNL1        0.1188
     34 H         145.7453  141.2578  163.8593 H       1  UNL1        0.1188
@<TRIPOS>BOND
     1    24    25    1
     2    25    26    1
     3    25    27    1
     4    27    22    1
     5    22     1    1
     6     1     2   ar
     7     2    17    1
     8    17    18   am
     9    17    19    2
    10     2     3   ar
    11     3     4   ar
    12     4     5   ar
    13     5     6   ar
    14     6     7   ar
    15     7    10    1
    16    10    11   ar
    17    11    12   ar
    18    12    13   ar
    19    13    14   ar
    20    14    15   ar
    21    15    16    1
    22     7     8   ar
    23     8     9   ar
    24    27    28    1
    25    28    29    1
    26    29    30    1
    27    30    31    1
    28    30    32    1
    29    30    25    1
    30     9     1   ar
    31     9     5   ar
    32    15    10   ar
    33    22    23    1
    34    18    20    1
    35    18    21    1
    36    32    33    1
    37    32    34    1
@<TRIPOS>MOLECULE
*****
 34 37 0 0 0
SMALL
GASTEIGER

@<TRIPOS>ATOM
      1 C         139.1846  141.4418  162.7305 C.ar    1  UNL1        0.0685
      2 C         138.5042  140.7541  161.5842 C.ar    1  UNL1        0.0885
      3 C         138.0068  139.3478  161.7418 C.ar    1  UNL1        0.1263
      4 N         138.1897  138.6292  163.0457 N.ar    1  UNL1       -0.1633
      5 N         138.8701  139.3169  164.1921 N.ar    1  UNL1       -0.2270
      6 C         139.1904  138.8654  165.5862 C.ar    1  UNL1        0.1005
      7 C         139.8858  139.9927  166.2902 C.ar    1  UNL1        0.0229
      8 C         139.9953  141.1409  165.3312 C.ar    1  UNL1        0.0220
      9 C         139.3675  140.7233  164.0345 C.ar    1  UNL1        0.0961
     10 C         140.3842  139.9749  167.7048 C.ar    1  UNL1        0.0290
     11 C         139.4421  140.2641  168.8356 C.ar    1  UNL1        0.0023
     12 C         139.9406  140.2463  170.2503 C.ar    1  UNL1        0.0001
     13 C         141.3812  139.9394  170.5341 C.ar    1  UNL1        0.0023
     14 C         142.3233  139.6501  169.4033 C.ar    1  UNL1        0.0296
     15 C         141.8247  139.6679  167.9887 C.ar    1  UNL1        0.1401
     16 F         142.7668  139.3787  166.8578 F       1  UNL1       -0.2042
     17 C         138.3213  141.4727  160.2803 C.2     1  UNL1        0.2456
     18 N         138.3618  140.7080  158.9905 N.am    1  UNL1       -0.3252
     19 O         138.0980  142.9558  160.2662 O.2     1  UNL1       -0.2703
     20 H         138.5084  139.7346  158.9997 H       1  UNL1        0.1453
     21 H         138.2418  141.1796  158.1346 H       1  UNL1        0.1453
     22 N         139.6821  142.8481  162.5729 N.pl3   1  UNL1       -0.3327
     23 H         139.0514  143.6022  162.6264 H       1  UNL1        0.1468
     24 C         140.7135  144.4334  163.7774 C.3     1  UNL1        0.0029
     25 C         141.9845  144.1216  163.0443 C.3     1  UNL1        0.0282
     26 C         142.5629  145.2030  163.9081 C.3     1  UNL1        0.0029
     27 C         141.1404  143.1055  162.3338 C.3     1  UNL1        0.0702
     28 C         142.0106  142.3918  161.3422 C.3     1  UNL1        0.0208
     29 C         143.3925  142.9669  161.4398 C.3     1  UNL1        0.0160
     30 C         143.3764  144.0360  162.4918 C.3     1  UNL1        0.0404
     31 C         143.6638  145.1352  163.4711 C.3     1  UNL1        0.0156
     32 N         144.8284  144.1801  162.1440 N.3     1  UNL1       -0.3231
     33 H         145.0700  143.5139  161.4105 H       1  UNL1        0.1188
     34 H         145.3960  143.9958  162.9712 H       1  UNL1        0.1188
@<TRIPOS>BOND
     1    24    25    1
     2    25    26    1
     3    25    27    1
     4    27    22    1
     5    22     1    1
     6     1     2   ar
     7     2    17    1
     8    17    18   am
     9    17    19    2
    10     2     3   ar
    11     3     4   ar
    12     4     5   ar
    13     5     6   ar
    14     6     7   ar
    15     7    10    1
    16    10    11   ar
    17    11    12   ar
    18    12    13   ar
    19    13    14   ar
    20    14    15   ar
    21    15    16    1
    22     7     8   ar
    23     8     9   ar
    24    27    28    1
    25    28    29    1
    26    29    30    1
    27    30    31    1
    28    30    32    1
    29    30    25    1
    30     9     1   ar
    31     9     5   ar
    32    15    10   ar
    33    22    23    1
    34    18    20    1
    35    18    21    1
    36    32    33    1
    37    32    34    1
@<TRIPOS>MOLECULE
*****
 34 37 0 0 0
SMALL
GASTEIGER

@<TRIPOS>ATOM
      1 C         140.4454  140.2584  165.9268 C.ar    1  UNL1        0.0685
      2 C         139.5559  139.9012  167.0805 C.ar    1  UNL1        0.0885
      3 C         138.5262  138.8214  166.9274 C.ar    1  UNL1        0.1263
      4 N         138.3859  138.0987  165.6204 N.ar    1  UNL1       -0.1633
      5 N         139.2754  138.4559  164.4667 N.ar    1  UNL1       -0.2270
      6 C         139.3686  137.9215  163.0682 C.ar    1  UNL1        0.1005
      7 C         140.4559  138.6711  162.3571 C.ar    1  UNL1        0.0229
      8 C         141.0348  139.6688  163.3160 C.ar    1  UNL1        0.0220
      9 C         140.3052  139.5358  164.6198 C.ar    1  UNL1        0.0961
     10 C         140.8885  138.4601  160.9364 C.ar    1  UNL1        0.0290
     11 C         139.9275  138.7169  159.8137 C.ar    1  UNL1        0.0023
     12 C         140.3602  138.5059  158.3930 C.ar    1  UNL1        0.0001
     13 C         141.7539  138.0381  158.0950 C.ar    1  UNL1        0.0023
     14 C         142.7149  137.7812  159.2177 C.ar    1  UNL1        0.0296
     15 C         142.2822  137.9923  160.6384 C.ar    1  UNL1        0.1401
     16 F         143.2432  137.7354  161.7610 F       1  UNL1       -0.2042
     17 C         139.6962  140.6240  168.3875 C.2     1  UNL1        0.2456
     18 N         139.4360  139.9012  169.6758 N.am    1  UNL1       -0.3252
     19 O         140.0967  142.0693  168.4060 O.2     1  UNL1       -0.2703
     20 H         139.1732  138.9525  169.6636 H       1  UNL1        0.1453
     21 H         139.5281  140.3755  170.5336 H       1  UNL1        0.1453
     22 N         141.4752  141.3383  166.0800 N.pl3   1  UNL1       -0.3327
     23 H         142.2477  141.2011  166.6747 H       1  UNL1        0.1468
     24 C         143.3178  142.3623  165.3158 C.3     1  UNL1        0.0029
     25 C         142.4460  143.4428  164.7480 C.3     1  UNL1        0.0282
     26 C         143.7462  144.0323  164.2878 C.3     1  UNL1        0.0029
     27 C         141.3280  142.6273  165.3269 C.3     1  UNL1        0.0702
     28 C         140.0371  143.3271  165.0207 C.3     1  UNL1        0.0208
     29 C         140.3572  144.5750  164.2525 C.3     1  UNL1        0.0160
     30 C         141.8459  144.6465  164.0840 C.3     1  UNL1        0.0404
     31 C         143.2716  144.9844  163.7626 C.3     1  UNL1        0.0156
     32 N         141.5439  145.9209  163.3528 N.3     1  UNL1       -0.3231
     33 H         140.5361  146.0778  163.3450 H       1  UNL1        0.1188
     34 H         141.8847  145.8516  162.3939 H       1  UNL1        0.1188
@<TRIPOS>BOND
     1    24    25    1
     2    25    26    1
     3    25    27    1
     4    27    22    1
     5    22     1    1
     6     1     2   ar
     7     2    17    1
     8    17    18   am
     9    17    19    2
    10     2     3   ar
    11     3     4   ar
    12     4     5   ar
    13     5     6   ar
    14     6     7   ar
    15     7    10    1
    16    10    11   ar
    17    11    12   ar
    18    12    13   ar
    19    13    14   ar
    20    14    15   ar
    21    15    16    1
    22     7     8   ar
    23     8     9   ar
    24    27    28    1
    25    28    29    1
    26    29    30    1
    27    30    31    1
    28    30    32    1
    29    30    25    1
    30     9     1   ar
    31     9     5   ar
    32    15    10   ar
    33    22    23    1
    34    18    20    1
    35    18    21    1
    36    32    33    1
    37    32    34    1
@<TRIPOS>MOLECULE
*****
 34 37 0 0 0
SMALL
GASTEIGER

@<TRIPOS>ATOM
      1 C         141.0823  143.3200  163.0135 C.ar    1  UNL1        0.0685
      2 C         140.1834  144.3326  162.3681 C.ar    1  UNL1        0.0885
      3 C         139.1813  145.0814  163.1956 C.ar    1  UNL1        0.1263
      4 N         139.0779  144.8177  164.6686 N.ar    1  UNL1       -0.1633
      5 N         139.9768  143.8051  165.3141 N.ar    1  UNL1       -0.2270
      6 C         140.1039  143.3356  166.7330 C.ar    1  UNL1        0.1005
      7 C         141.1847  142.2966  166.7824 C.ar    1  UNL1        0.0229
      8 C         141.7255  142.1239  165.3940 C.ar    1  UNL1        0.0220
      9 C         140.9790  143.0562  164.4865 C.ar    1  UNL1        0.0961
     10 C         141.6440  141.5597  168.0055 C.ar    1  UNL1        0.0290
     11 C         142.8861  141.9981  168.7230 C.ar    1  UNL1        0.0023
     12 C         143.3454  141.2611  169.9461 C.ar    1  UNL1        0.0001
     13 C         142.5626  140.0857  170.4517 C.ar    1  UNL1        0.0023
     14 C         141.3204  139.6473  169.7342 C.ar    1  UNL1        0.0296
     15 C         140.8612  140.3843  168.5111 C.ar    1  UNL1        0.1401
     16 F         139.6190  139.9459  167.7936 F       1  UNL1       -0.2042
     17 C         140.2868  144.5964  160.8950 C.2     1  UNL1        0.2456
     18 N         141.3652  145.4960  160.3681 N.am    1  UNL1       -0.3252
     19 O         139.3118  143.9605  159.9490 O.2     1  UNL1       -0.2703
     20 H         142.0051  145.9133  160.9890 H       1  UNL1        0.1453
     21 H         141.4331  145.6691  159.4013 H       1  UNL1        0.1453
     22 N         142.0845  142.5711  162.1859 N.pl3   1  UNL1       -0.3327
     23 H         142.8543  143.0455  161.7966 H       1  UNL1        0.1468
     24 C         143.8662  141.2268  162.3998 C.3     1  UNL1        0.0029
     25 C         142.9907  140.0600  162.0505 C.3     1  UNL1        0.0282
     26 C         144.2508  139.2646  162.2225 C.3     1  UNL1        0.0029
     27 C         141.9137  141.0993  161.9515 C.3     1  UNL1        0.0702
     28 C         140.6360  140.4086  161.5769 C.3     1  UNL1        0.0208
     29 C         140.9234  138.9424  161.4444 C.3     1  UNL1        0.0160
     30 C         142.3786  138.7270  161.7371 C.3     1  UNL1        0.0404
     31 C         143.7667  138.2103  161.9747 C.3     1  UNL1        0.0156
     32 N         142.0567  137.2859  161.4734 N.3     1  UNL1       -0.3231
     33 H         141.0673  137.1952  161.2427 H       1  UNL1        0.1188
     34 H         142.2639  136.7334  162.3055 H       1  UNL1        0.1188
@<TRIPOS>BOND
     1    24    25    1
     2    25    26    1
     3    25    27    1
     4    27    22    1
     5    22     1    1
     6     1     2   ar
     7     2    17    1
     8    17    18   am
     9    17    19    2
    10     2     3   ar
    11     3     4   ar
    12     4     5   ar
    13     5     6   ar
    14     6     7   ar
    15     7    10    1
    16    10    11   ar
    17    11    12   ar
    18    12    13   ar
    19    13    14   ar
    20    14    15   ar
    21    15    16    1
    22     7     8   ar
    23     8     9   ar
    24    27    28    1
    25    28    29    1
    26    29    30    1
    27    30    31    1
    28    30    32    1
    29    30    25    1
    30     9     1   ar
    31     9     5   ar
    32    15    10   ar
    33    22    23    1
    34    18    20    1
    35    18    21    1
    36    32    33    1
    37    32    34    1
@<TRIPOS>MOLECULE
*****
 34 37 0 0 0
SMALL
GASTEIGER

@<TRIPOS>ATOM
      1 C         142.4768  140.0466  162.1207 C.ar    1  UNL1        0.0685
      2 C         142.2897  139.1828  160.9087 C.ar    1  UNL1        0.0885
      3 C         141.5310  137.8935  161.0166 C.ar    1  UNL1        0.1263
      4 N         140.9594  137.4677  162.3365 N.ar    1  UNL1       -0.1633
      5 N         141.1465  138.3314  163.5484 N.ar    1  UNL1       -0.2270
      6 C         140.7009  138.1734  164.9720 C.ar    1  UNL1        0.1005
      7 C         141.1843  139.3653  165.7439 C.ar    1  UNL1        0.0229
      8 C         141.9286  140.2599  164.7974 C.ar    1  UNL1        0.0220
      9 C         141.9052  139.6209  163.4406 C.ar    1  UNL1        0.0961
     10 C         140.9623  139.6182  167.2057 C.ar    1  UNL1        0.0290
     11 C         139.6333  140.1207  167.6865 C.ar    1  UNL1        0.0023
     12 C         139.4114  140.3736  169.1484 C.ar    1  UNL1        0.0001
     13 C         140.5184  140.1240  170.1293 C.ar    1  UNL1        0.0023
     14 C         141.8474  139.6215  169.6484 C.ar    1  UNL1        0.0296
     15 C         142.0693  139.3686  168.1866 C.ar    1  UNL1        0.1401
     16 F         143.3983  138.8661  167.7057 F       1  UNL1       -0.2042
     17 C         142.8614  139.6086  159.5888 C.2     1  UNL1        0.2456
     18 N         143.3657  138.5781  158.6226 N.am    1  UNL1       -0.3252
     19 O         142.9287  141.0647  159.2353 O.2     1  UNL1       -0.2703
     20 H         143.3215  137.6224  158.8546 H       1  UNL1        0.1453
     21 H         143.7409  138.8575  157.7563 H       1  UNL1        0.1453
     22 N         143.2356  141.3361  162.0128 N.pl3   1  UNL1       -0.3327
     23 H         144.1919  141.3264  161.7794 H       1  UNL1        0.1468
     24 C         144.2108  142.8498  163.3490 C.3     1  UNL1        0.0029
     25 C         143.0408  143.7606  163.1215 C.3     1  UNL1        0.0282
     26 C         143.7892  144.6904  164.0300 C.3     1  UNL1        0.0029
     27 C         142.5371  142.6403  162.2607 C.3     1  UNL1        0.0702
     28 C         141.2123  143.0531  161.6911 C.3     1  UNL1        0.0208
     29 C         140.8973  144.4285  162.1999 C.3     1  UNL1        0.0160
     30 C         142.0274  144.8657  163.0840 C.3     1  UNL1        0.0404
     31 C         142.9876  145.5645  164.0003 C.3     1  UNL1        0.0156
     32 N         141.2147  146.1170  163.2381 N.3     1  UNL1       -0.3231
     33 H         140.3567  146.0344  162.6927 H       1  UNL1        0.1188
     34 H         141.7540  146.9159  162.9046 H       1  UNL1        0.1188
@<TRIPOS>BOND
     1    24    25    1
     2    25    26    1
     3    25    27    1
     4    27    22    1
     5    22     1    1
     6     1     2   ar
     7     2    17    1
     8    17    18   am
     9    17    19    2
    10     2     3   ar
    11     3     4   ar
    12     4     5   ar
    13     5     6   ar
    14     6     7   ar
    15     7    10    1
    16    10    11   ar
    17    11    12   ar
    18    12    13   ar
    19    13    14   ar
    20    14    15   ar
    21    15    16    1
    22     7     8   ar
    23     8     9   ar
    24    27    28    1
    25    28    29    1
    26    29    30    1
    27    30    31    1
    28    30    32    1
    29    30    25    1
    30     9     1   ar
    31     9     5   ar
    32    15    10   ar
    33    22    23    1
    34    18    20    1
    35    18    21    1
    36    32    33    1
    37    32    34    1
@<TRIPOS>MOLECULE
*****
 34 37 0 0 0
SMALL
GASTEIGER

@<TRIPOS>ATOM
      1 C         140.7108  139.7328  163.2174 C.ar    1  UNL1        0.0685
      2 C         140.0918  138.6714  162.3570 C.ar    1  UNL1        0.0885
      3 C         139.1294  137.6883  162.9547 C.ar    1  UNL1        0.1263
      4 N         138.7859  137.7667  164.4128 N.ar    1  UNL1       -0.1633
      5 N         139.4048  138.8281  165.2731 N.ar    1  UNL1       -0.2270
      6 C         139.2586  139.1502  166.7308 C.ar    1  UNL1        0.1005
      7 C         140.1308  140.3323  167.0340 C.ar    1  UNL1        0.0229
      8 C         140.8160  140.7408  165.7637 C.ar    1  UNL1        0.0220
      9 C         140.3673  139.8112  164.6754 C.ar    1  UNL1        0.0961
     10 C         140.2898  140.9904  168.3725 C.ar    1  UNL1        0.0290
     11 C         140.4083  140.1524  169.6109 C.ar    1  UNL1        0.0023
     12 C         140.5674  140.8106  170.9494 C.ar    1  UNL1        0.0001
     13 C         140.6079  142.3067  171.0496 C.ar    1  UNL1        0.0023
     14 C         140.4893  143.1447  169.8111 C.ar    1  UNL1        0.0296
     15 C         140.3303  142.4865  168.4726 C.ar    1  UNL1        0.1401
     16 F         140.2118  143.3245  167.2342 F       1  UNL1       -0.2042
     17 C         140.4354  138.5930  160.8990 C.2     1  UNL1        0.2456
     18 N         139.3471  138.6468  159.8681 N.am    1  UNL1       -0.3252
     19 O         141.8671  138.4609  160.4718 O.2     1  UNL1       -0.2703
     20 H         138.4074  138.7336  160.1485 H       1  UNL1        0.1453
     21 H         139.5725  138.5954  158.9112 H       1  UNL1        0.1453
     22 N         141.6733  140.7159  162.6197 N.pl3   1  UNL1       -0.3327
     23 H         142.5101  140.3984  162.2096 H       1  UNL1        0.1468
     24 C         143.2469  142.1451  163.3327 C.3     1  UNL1        0.0029
     25 C         142.2891  143.2740  163.0914 C.3     1  UNL1        0.0282
     26 C         143.4176  144.1291  163.5864 C.3     1  UNL1        0.0029
     27 C         141.3608  142.1828  162.6469 C.3     1  UNL1        0.0702
     28 C         140.0651  142.8160  162.2343 C.3     1  UNL1        0.0208
     29 C         140.1926  144.2985  162.4239 C.3     1  UNL1        0.0160
     30 C         141.5671  144.5815  162.9536 C.3     1  UNL1        0.0404
     31 C         142.8466  145.1633  163.4774 C.3     1  UNL1        0.0156
     32 N         141.1127  146.0107  162.9252 N.3     1  UNL1       -0.3231
     33 H         140.1542  146.0559  162.5792 H       1  UNL1        0.1188
     34 H         141.7221  146.5491  162.3096 H       1  UNL1        0.1188
@<TRIPOS>BOND
     1    24    25    1
     2    25    26    1
     3    25    27    1
     4    27    22    1
     5    22     1    1
     6     1     2   ar
     7     2    17    1
     8    17    18   am
     9    17    19    2
    10     2     3   ar
    11     3     4   ar
    12     4     5   ar
    13     5     6   ar
    14     6     7   ar
    15     7    10    1
    16    10    11   ar
    17    11    12   ar
    18    12    13   ar
    19    13    14   ar
    20    14    15   ar
    21    15    16    1
    22     7     8   ar
    23     8     9   ar
    24    27    28    1
    25    28    29    1
    26    29    30    1
    27    30    31    1
    28    30    32    1
    29    30    25    1
    30     9     1   ar
    31     9     5   ar
    32    15    10   ar
    33    22    23    1
    34    18    20    1
    35    18    21    1
    36    32    33    1
    37    32    34    1
@<TRIPOS>MOLECULE
*****
 34 37 0 0 0
SMALL
GASTEIGER

@<TRIPOS>ATOM
      1 C         139.3496  140.3164  163.3213 C.ar    1  UNL1        0.0685
      2 C         139.2012  139.0704  162.4995 C.ar    1  UNL1        0.0885
      3 C         139.7627  137.7719  162.9980 C.ar    1  UNL1        0.1263
      4 N         140.4727  137.7194  164.3183 N.ar    1  UNL1       -0.1633
      5 N         140.6212  138.9654  165.1401 N.ar    1  UNL1       -0.2270
      6 C         141.2661  139.2195  166.4703 C.ar    1  UNL1        0.1005
      7 C         141.1032  140.6751  166.7939 C.ar    1  UNL1        0.0229
      8 C         140.3575  141.3206  165.6637 C.ar    1  UNL1        0.0220
      9 C         140.0596  140.2640  164.6416 C.ar    1  UNL1        0.0961
     10 C         141.5988  141.3642  168.0306 C.ar    1  UNL1        0.0290
     11 C         143.0137  141.8575  168.0983 C.ar    1  UNL1        0.0023
     12 C         143.5093  142.5466  169.3351 C.ar    1  UNL1        0.0001
     13 C         142.5900  142.7425  170.5041 C.ar    1  UNL1        0.0023
     14 C         141.1751  142.2492  170.4364 C.ar    1  UNL1        0.0296
     15 C         140.6795  141.5600  169.1996 C.ar    1  UNL1        0.1401
     16 F         139.2646  141.0667  169.1319 F       1  UNL1       -0.2042
     17 C         138.4911  139.1229  161.1792 C.2     1  UNL1        0.2456
     18 N         136.9925  139.1699  161.1350 N.am    1  UNL1       -0.3252
     19 O         139.2796  139.1285  159.9033 O.2     1  UNL1       -0.2703
     20 H         136.4750  139.1663  161.9725 H       1  UNL1        0.1453
     21 H         136.5264  139.2044  160.2685 H       1  UNL1        0.1453
     22 N         138.7881  141.6150  162.8228 N.pl3   1  UNL1       -0.3327
     23 H         137.8379  141.8282  162.9674 H       1  UNL1        0.1468
     24 C         138.3983  143.8106  163.0570 C.3     1  UNL1        0.0029
     25 C         139.5590  144.0836  162.1469 C.3     1  UNL1        0.0282
     26 C         139.2010  145.5214  162.3801 C.3     1  UNL1        0.0029
     27 C         139.6743  142.5887  162.1040 C.3     1  UNL1        0.0702
     28 C         140.8314  142.2383  161.2161 C.3     1  UNL1        0.0208
     29 C         141.4312  143.5167  160.7103 C.3     1  UNL1        0.0160
     30 C         140.6448  144.6571  161.2855 C.3     1  UNL1        0.0404
     31 C         140.0599  145.9751  161.6988 C.3     1  UNL1        0.0156
     32 N         141.6084  145.5062  160.5105 N.3     1  UNL1       -0.3231
     33 H         142.2688  144.9063  160.0163 H       1  UNL1        0.1188
     34 H         142.1165  146.1154  161.1517 H       1  UNL1        0.1188
@<TRIPOS>BOND
     1    24    25    1
     2    25    26    1
     3    25    27    1
     4    27    22    1
     5    22     1    1
     6     1     2   ar
     7     2    17    1
     8    17    18   am
     9    17    19    2
    10     2     3   ar
    11     3     4   ar
    12     4     5   ar
    13     5     6   ar
    14     6     7   ar
    15     7    10    1
    16    10    11   ar
    17    11    12   ar
    18    12    13   ar
    19    13    14   ar
    20    14    15   ar
    21    15    16    1
    22     7     8   ar
    23     8     9   ar
    24    27    28    1
    25    28    29    1
    26    29    30    1
    27    30    31    1
    28    30    32    1
    29    30    25    1
    30     9     1   ar
    31     9     5   ar
    32    15    10   ar
    33    22    23    1
    34    18    20    1
    35    18    21    1
    36    32    33    1
    37    32    34    1
