@<TRIPOS>MOLECULE
*****
 28 31 0 0 0
SMALL
GASTEIGER

@<TRIPOS>ATOM
      1 C         141.4508  138.9540  163.6392 C.ar    1  UNL1        0.0878
      2 C         140.7395  138.1349  162.6033 C.ar    1  UNL1        0.0091
      3 C         139.3668  137.5991  162.8834 C.ar    1  UNL1        0.0194
      4 C         138.7053  137.8824  164.1995 C.ar    1  UNL1        0.0844
      5 N         139.4165  138.7014  165.2355 N.ar    1  UNL1       -0.2576
      6 C         138.7550  138.9847  166.5516 C.ar    1  UNL1        0.2672
      7 O         137.3823  138.4489  166.8318 O.2     1  UNL1       -0.2665
      8 C         139.4663  139.8039  167.5876 C.ar    1  UNL1        0.0742
      9 C         138.8048  140.0871  168.9037 C.ar    1  UNL1        0.0063
     10 C         139.5160  140.9062  169.9397 C.ar    1  UNL1        0.0003
     11 C         140.8888  141.4421  169.6595 C.ar    1  UNL1        0.0015
     12 C         141.6000  142.2611  170.6955 C.ar    1  UNL1        0.0000
     13 C         142.9727  142.7969  170.4153 C.ar    1  UNL1        0.0000
     14 C         143.6342  142.5137  169.0992 C.ar    1  UNL1        0.0000
     15 C         142.9230  141.6946  168.0632 C.ar    1  UNL1        0.0015
     16 C         141.5503  141.1588  168.3434 C.ar    1  UNL1        0.0179
     17 C         140.8390  140.3396  167.3074 C.ar    1  UNL1        0.0875
     18 N         141.5005  140.0564  165.9913 N.ar    1  UNL1       -0.2276
     19 C         140.7893  139.2373  164.9553 C.ar    1  UNL1        0.1543
     20 N         143.8728  139.4617  164.4306 N.am    1  UNL1       -0.2994
     21 C         142.8235  139.4898  163.3591 C.2     1  UNL1        0.2488
     22 O         143.1471  140.0538  162.0072 O.2     1  UNL1       -0.2700
     23 H         143.6605  139.0915  165.3179 H       1  UNL1        0.1498
     24 C         145.2455  139.9975  164.1504 C.3     1  UNL1        0.1068
     25 C         145.4477  141.4687  163.9392 C.3     1  UNL1        0.0901
     26 C         144.7307  143.1035  162.0515 C.3     1  UNL1        0.0859
     27 N         145.6269  142.0096  162.5517 N.3     1  UNL1       -0.2949
     28 H         146.5823  142.3622  162.4942 H       1  UNL1        0.1233
@<TRIPOS>BOND
     1    26    27    1
     2    27    25    1
     3    25    24    1
     4    24    20    1
     5    20    21   am
     6    21    22    2
     7    21     1    1
     8     1     2   ar
     9     2     3   ar
    10     3     4   ar
    11     4     5   ar
    12     5     6   ar
    13     6     7    2
    14     6     8   ar
    15     8     9   ar
    16     9    10   ar
    17    10    11   ar
    18    11    12   ar
    19    12    13   ar
    20    13    14   ar
    21    14    15   ar
    22    15    16   ar
    23    16    17   ar
    24    17    18   ar
    25    18    19   ar
    26    19     1   ar
    27    19     5   ar
    28    17     8   ar
    29    16    11   ar
    30    27    28    1
    31    20    23    1
@<TRIPOS>MOLECULE
*****
 28 31 0 0 0
SMALL
GASTEIGER

@<TRIPOS>ATOM
      1 C         139.5795  140.0836  167.3168 C.ar    1  UNL1        0.0878
      2 C         139.1985  139.8478  168.7484 C.ar    1  UNL1        0.0091
      3 C         140.0494  140.4024  169.8521 C.ar    1  UNL1        0.0194
      4 C         141.2815  141.1927  169.5244 C.ar    1  UNL1        0.0844
      5 N         141.6625  141.4285  168.0929 N.ar    1  UNL1       -0.2576
      6 C         142.8946  142.2189  167.7652 C.ar    1  UNL1        0.2672
      7 O         143.7455  142.7735  168.8689 O.2     1  UNL1       -0.2665
      8 C         143.2757  142.4547  166.3336 C.ar    1  UNL1        0.0742
      9 C         144.5077  143.2450  166.0059 C.ar    1  UNL1        0.0063
     10 C         144.8888  143.4808  164.5744 C.ar    1  UNL1        0.0003
     11 C         144.0378  142.9262  163.4706 C.ar    1  UNL1        0.0015
     12 C         144.4189  143.1620  162.0391 C.ar    1  UNL1        0.0000
     13 C         143.5679  142.6074  160.9354 C.ar    1  UNL1        0.0000
     14 C         142.3359  141.8171  161.2631 C.ar    1  UNL1        0.0000
     15 C         141.9548  141.5813  162.6946 C.ar    1  UNL1        0.0015
     16 C         142.8058  142.1359  163.7983 C.ar    1  UNL1        0.0179
     17 C         142.4247  141.9001  165.2299 C.ar    1  UNL1        0.0875
     18 N         141.1927  141.1097  165.5576 N.ar    1  UNL1       -0.2276
     19 C         140.8116  140.8739  166.9891 C.ar    1  UNL1        0.1543
     20 N         139.0961  139.7854  164.7816 N.am    1  UNL1       -0.2994
     21 C         138.7286  139.5290  166.2131 C.2     1  UNL1        0.2488
     22 O         137.5100  138.7180  166.5408 O.2     1  UNL1       -0.2700
     23 H         139.8959  140.3177  164.5665 H       1  UNL1        0.1498
     24 C         138.2451  139.2308  163.6778 C.3     1  UNL1        0.1068
     25 C         137.7428  140.1350  162.5916 C.3     1  UNL1        0.0901
     26 C         137.5352  142.6636  163.1511 C.3     1  UNL1        0.0859
     27 N         136.8957  141.3238  162.9371 N.3     1  UNL1       -0.2949
     28 H         136.2230  141.4364  162.1788 H       1  UNL1        0.1233
@<TRIPOS>BOND
     1    26    27    1
     2    27    25    1
     3    25    24    1
     4    24    20    1
     5    20    21   am
     6    21    22    2
     7    21     1    1
     8     1     2   ar
     9     2     3   ar
    10     3     4   ar
    11     4     5   ar
    12     5     6   ar
    13     6     7    2
    14     6     8   ar
    15     8     9   ar
    16     9    10   ar
    17    10    11   ar
    18    11    12   ar
    19    12    13   ar
    20    13    14   ar
    21    14    15   ar
    22    15    16   ar
    23    16    17   ar
    24    17    18   ar
    25    18    19   ar
    26    19     1   ar
    27    19     5   ar
    28    17     8   ar
    29    16    11   ar
    30    27    28    1
    31    20    23    1
@<TRIPOS>MOLECULE
*****
 28 31 0 0 0
SMALL
GASTEIGER

@<TRIPOS>ATOM
      1 C         143.0915  141.9428  163.6317 C.ar    1  UNL1        0.0878
      2 C         143.7972  141.3249  162.4610 C.ar    1  UNL1        0.0091
      3 C         144.3975  139.9559  162.5845 C.ar    1  UNL1        0.0194
      4 C         144.2922  139.2046  163.8785 C.ar    1  UNL1        0.0844
      5 N         143.5865  139.8224  165.0491 N.ar    1  UNL1       -0.2576
      6 C         143.4811  139.0711  166.3431 C.ar    1  UNL1        0.2672
      7 O         144.0814  137.7021  166.4665 O.2     1  UNL1       -0.2665
      8 C         142.7754  139.6890  167.5137 C.ar    1  UNL1        0.0742
      9 C         142.6701  138.9377  168.8078 C.ar    1  UNL1        0.0063
     10 C         141.9644  139.5555  169.9784 C.ar    1  UNL1        0.0003
     11 C         141.3641  140.9246  169.8550 C.ar    1  UNL1        0.0015
     12 C         140.6584  141.5424  171.0256 C.ar    1  UNL1        0.0000
     13 C         140.0581  142.9115  170.9021 C.ar    1  UNL1        0.0000
     14 C         140.1635  143.6627  169.6081 C.ar    1  UNL1        0.0000
     15 C         140.8691  143.0450  168.4375 C.ar    1  UNL1        0.0015
     16 C         141.4694  141.6759  168.5609 C.ar    1  UNL1        0.0179
     17 C         142.1751  141.0580  167.3903 C.ar    1  UNL1        0.0875
     18 N         142.2805  141.8093  166.0963 N.ar    1  UNL1       -0.2276
     19 C         142.9862  141.1915  164.9257 C.ar    1  UNL1        0.1543
     20 N         141.0410  143.5263  163.8259 N.am    1  UNL1       -0.2994
     21 C         142.4912  143.3118  163.5082 C.2     1  UNL1        0.2488
     22 O         143.3411  144.4665  163.0671 O.2     1  UNL1       -0.2700
     23 H         140.4832  142.7686  164.1155 H       1  UNL1        0.1498
     24 C         140.4407  144.8955  163.7025 C.3     1  UNL1        0.1068
     25 C         139.5186  145.2100  162.5620 C.3     1  UNL1        0.0901
     26 C         137.7980  143.2634  162.5633 C.3     1  UNL1        0.0859
     27 N         138.0969  144.7330  162.5935 N.3     1  UNL1       -0.2949
     28 H         137.6820  145.1003  163.4499 H       1  UNL1        0.1233
@<TRIPOS>BOND
     1    26    27    1
     2    27    25    1
     3    25    24    1
     4    24    20    1
     5    20    21   am
     6    21    22    2
     7    21     1    1
     8     1     2   ar
     9     2     3   ar
    10     3     4   ar
    11     4     5   ar
    12     5     6   ar
    13     6     7    2
    14     6     8   ar
    15     8     9   ar
    16     9    10   ar
    17    10    11   ar
    18    11    12   ar
    19    12    13   ar
    20    13    14   ar
    21    14    15   ar
    22    15    16   ar
    23    16    17   ar
    24    17    18   ar
    25    18    19   ar
    26    19     1   ar
    27    19     5   ar
    28    17     8   ar
    29    16    11   ar
    30    27    28    1
    31    20    23    1
@<TRIPOS>MOLECULE
*****
 28 31 0 0 0
SMALL
GASTEIGER

@<TRIPOS>ATOM
      1 C         143.2687  142.1279  166.7110 C.ar    1  UNL1        0.0878
      2 C         143.5271  142.6214  168.1038 C.ar    1  UNL1        0.0091
      3 C         142.6212  142.2088  169.2258 C.ar    1  UNL1        0.0194
      4 C         141.4568  141.3028  168.9551 C.ar    1  UNL1        0.0844
      5 N         141.1983  140.8093  167.5624 N.ar    1  UNL1       -0.2576
      6 C         140.0339  139.9033  167.2918 C.ar    1  UNL1        0.2672
      7 O         139.1280  139.4907  168.4138 O.2     1  UNL1       -0.2665
      8 C         139.7755  139.4099  165.8990 C.ar    1  UNL1        0.0742
      9 C         138.6110  138.5038  165.6283 C.ar    1  UNL1        0.0063
     10 C         138.3526  138.0104  164.2356 C.ar    1  UNL1        0.0003
     11 C         139.2585  138.4230  163.1135 C.ar    1  UNL1        0.0015
     12 C         139.0001  137.9296  161.7208 C.ar    1  UNL1        0.0000
     13 C         139.9060  138.3421  160.5987 C.ar    1  UNL1        0.0000
     14 C         141.0704  139.2482  160.8694 C.ar    1  UNL1        0.0000
     15 C         141.3289  139.7416  162.2621 C.ar    1  UNL1        0.0015
     16 C         140.4229  139.3290  163.3841 C.ar    1  UNL1        0.0179
     17 C         140.6814  139.8225  164.7769 C.ar    1  UNL1        0.0875
     18 N         141.8458  140.7285  165.0476 N.ar    1  UNL1       -0.2276
     19 C         142.1043  141.2219  166.4403 C.ar    1  UNL1        0.1543
     20 N         144.6317  141.5266  164.5825 N.am    1  UNL1       -0.2994
     21 C         144.1746  142.5405  165.5890 C.2     1  UNL1        0.2488
     22 O         144.6236  143.9671  165.4734 O.2     1  UNL1       -0.2700
     23 H         144.3371  140.5902  164.6583 H       1  UNL1        0.1498
     24 C         145.5377  141.9392  163.4604 C.3     1  UNL1        0.1068
     25 C         144.9626  142.5586  162.2212 C.3     1  UNL1        0.0901
     26 C         143.1220  144.3913  162.2778 C.3     1  UNL1        0.0859
     27 N         144.5705  144.0064  162.2190 N.3     1  UNL1       -0.2949
     28 H         145.0221  144.4350  163.0269 H       1  UNL1        0.1233
@<TRIPOS>BOND
     1    26    27    1
     2    27    25    1
     3    25    24    1
     4    24    20    1
     5    20    21   am
     6    21    22    2
     7    21     1    1
     8     1     2   ar
     9     2     3   ar
    10     3     4   ar
    11     4     5   ar
    12     5     6   ar
    13     6     7    2
    14     6     8   ar
    15     8     9   ar
    16     9    10   ar
    17    10    11   ar
    18    11    12   ar
    19    12    13   ar
    20    13    14   ar
    21    14    15   ar
    22    15    16   ar
    23    16    17   ar
    24    17    18   ar
    25    18    19   ar
    26    19     1   ar
    27    19     5   ar
    28    17     8   ar
    29    16    11   ar
    30    27    28    1
    31    20    23    1
@<TRIPOS>MOLECULE
*****
 28 31 0 0 0
SMALL
GASTEIGER

@<TRIPOS>ATOM
      1 C         141.7593  141.3751  161.2558 C.ar    1  UNL1        0.0878
      2 C         141.7027  140.9303  159.8243 C.ar    1  UNL1        0.0091
      3 C         140.8390  139.7678  159.4337 C.ar    1  UNL1        0.0194
      4 C         140.0319  139.0500  160.4745 C.ar    1  UNL1        0.0844
      5 N         140.0885  139.4947  161.9059 N.ar    1  UNL1       -0.2576
      6 C         139.2814  138.7769  162.9467 C.ar    1  UNL1        0.2672
      7 O         138.4177  137.6144  162.5561 O.2     1  UNL1       -0.2665
      8 C         139.3380  139.2217  164.3782 C.ar    1  UNL1        0.0742
      9 C         138.5308  138.5038  165.4190 C.ar    1  UNL1        0.0063
     10 C         138.5874  138.9485  166.8505 C.ar    1  UNL1        0.0003
     11 C         139.4511  140.1111  167.2411 C.ar    1  UNL1        0.0015
     12 C         139.5077  140.5558  168.6725 C.ar    1  UNL1        0.0000
     13 C         140.3714  141.7183  169.0631 C.ar    1  UNL1        0.0000
     14 C         141.1785  142.4361  168.0223 C.ar    1  UNL1        0.0000
     15 C         141.1219  141.9914  166.5909 C.ar    1  UNL1        0.0015
     16 C         140.2582  140.8289  166.2003 C.ar    1  UNL1        0.0179
     17 C         140.2016  140.3842  164.7688 C.ar    1  UNL1        0.0875
     18 N         141.0088  141.1020  163.7280 N.ar    1  UNL1       -0.2276
     19 C         140.9522  140.6573  162.2966 C.ar    1  UNL1        0.1543
     20 N         143.4364  142.4780  162.9052 N.am    1  UNL1       -0.2994
     21 C         142.6230  142.5376  161.6463 C.2     1  UNL1        0.2488
     22 O         142.6733  143.7597  160.7781 O.2     1  UNL1       -0.2700
     23 H         143.4035  141.6759  163.4751 H       1  UNL1        0.1498
     24 C         144.3002  143.6406  163.2958 C.3     1  UNL1        0.1068
     25 C         143.6905  144.8359  163.9662 C.3     1  UNL1        0.0901
     26 C         141.1056  145.0738  163.8592 C.3     1  UNL1        0.0859
     27 N         142.4684  145.4810  163.3829 N.3     1  UNL1       -0.2949
     28 H         142.5535  146.4827  163.5552 H       1  UNL1        0.1233
@<TRIPOS>BOND
     1    26    27    1
     2    27    25    1
     3    25    24    1
     4    24    20    1
     5    20    21   am
     6    21    22    2
     7    21     1    1
     8     1     2   ar
     9     2     3   ar
    10     3     4   ar
    11     4     5   ar
    12     5     6   ar
    13     6     7    2
    14     6     8   ar
    15     8     9   ar
    16     9    10   ar
    17    10    11   ar
    18    11    12   ar
    19    12    13   ar
    20    13    14   ar
    21    14    15   ar
    22    15    16   ar
    23    16    17   ar
    24    17    18   ar
    25    18    19   ar
    26    19     1   ar
    27    19     5   ar
    28    17     8   ar
    29    16    11   ar
    30    27    28    1
    31    20    23    1
@<TRIPOS>MOLECULE
*****
 28 31 0 0 0
SMALL
GASTEIGER

@<TRIPOS>ATOM
      1 C         142.0224  141.4097  161.4229 C.ar    1  UNL1        0.0878
      2 C         142.9304  141.9509  160.3586 C.ar    1  UNL1        0.0091
      3 C         144.1448  142.7441  160.7408 C.ar    1  UNL1        0.0194
      4 C         144.4512  142.9963  162.1874 C.ar    1  UNL1        0.0844
      5 N         143.5432  142.4551  163.2517 N.ar    1  UNL1       -0.2576
      6 C         143.8496  142.7073  164.6983 C.ar    1  UNL1        0.2672
      7 O         145.0640  143.5005  165.0805 O.2     1  UNL1       -0.2665
      8 C         142.9416  142.1661  165.7626 C.ar    1  UNL1        0.0742
      9 C         143.2480  142.4183  167.2092 C.ar    1  UNL1        0.0063
     10 C         142.3401  141.8772  168.2735 C.ar    1  UNL1        0.0003
     11 C         141.1257  141.0839  167.8913 C.ar    1  UNL1        0.0015
     12 C         140.2178  140.5428  168.9556 C.ar    1  UNL1        0.0000
     13 C         139.0035  139.7495  168.5734 C.ar    1  UNL1        0.0000
     14 C         138.6971  139.4974  167.1268 C.ar    1  UNL1        0.0000
     15 C         139.6050  140.0385  166.0625 C.ar    1  UNL1        0.0015
     16 C         140.8193  140.8317  166.4447 C.ar    1  UNL1        0.0179
     17 C         141.7273  141.3729  165.3804 C.ar    1  UNL1        0.0875
     18 N         141.4209  141.1208  163.9338 N.ar    1  UNL1       -0.2276
     19 C         142.3288  141.6619  162.8695 C.ar    1  UNL1        0.1543
     20 N         140.5684  139.2693  161.6551 N.am    1  UNL1       -0.2994
     21 C         140.8081  140.6165  161.0407 C.2     1  UNL1        0.2488
     22 O         139.8335  141.1705  160.0440 O.2     1  UNL1       -0.2700
     23 H         141.2080  138.9056  162.3092 H       1  UNL1        0.1498
     24 C         139.3539  138.4760  161.2728 C.3     1  UNL1        0.1068
     25 C         138.0458  138.7283  161.9621 C.3     1  UNL1        0.0901
     26 C         137.5605  141.1075  162.8860 C.3     1  UNL1        0.0859
     27 N         137.3720  140.0616  161.8274 N.3     1  UNL1       -0.2949
     28 H         137.6969  140.4685  160.9503 H       1  UNL1        0.1233
@<TRIPOS>BOND
     1    26    27    1
     2    27    25    1
     3    25    24    1
     4    24    20    1
     5    20    21   am
     6    21    22    2
     7    21     1    1
     8     1     2   ar
     9     2     3   ar
    10     3     4   ar
    11     4     5   ar
    12     5     6   ar
    13     6     7    2
    14     6     8   ar
    15     8     9   ar
    16     9    10   ar
    17    10    11   ar
    18    11    12   ar
    19    12    13   ar
    20    13    14   ar
    21    14    15   ar
    22    15    16   ar
    23    16    17   ar
    24    17    18   ar
    25    18    19   ar
    26    19     1   ar
    27    19     5   ar
    28    17     8   ar
    29    16    11   ar
    30    27    28    1
    31    20    23    1
@<TRIPOS>MOLECULE
*****
 28 31 0 0 0
SMALL
GASTEIGER

@<TRIPOS>ATOM
      1 C         143.7439  140.2514  162.8221 C.ar    1  UNL1        0.0878
      2 C         145.0056  140.9281  162.3744 C.ar    1  UNL1        0.0091
      3 C         145.6588  141.9538  163.2525 C.ar    1  UNL1        0.0194
      4 C         145.0504  142.3029  164.5784 C.ar    1  UNL1        0.0844
      5 N         143.7888  141.6262  165.0261 N.ar    1  UNL1       -0.2576
      6 C         143.1804  141.9753  166.3520 C.ar    1  UNL1        0.2672
      7 O         143.8335  143.0011  167.2302 O.2     1  UNL1       -0.2665
      8 C         141.9187  141.2986  166.7998 C.ar    1  UNL1        0.0742
      9 C         141.3103  141.6477  168.1256 C.ar    1  UNL1        0.0063
     10 C         140.0487  140.9710  168.5734 C.ar    1  UNL1        0.0003
     11 C         139.3955  139.9452  167.6952 C.ar    1  UNL1        0.0015
     12 C         138.1339  139.2686  168.1429 C.ar    1  UNL1        0.0000
     13 C         137.4807  138.2429  167.2648 C.ar    1  UNL1        0.0000
     14 C         138.0892  137.8938  165.9389 C.ar    1  UNL1        0.0000
     15 C         139.3507  138.5704  165.4912 C.ar    1  UNL1        0.0015
     16 C         140.0039  139.5962  166.3693 C.ar    1  UNL1        0.0179
     17 C         141.2655  140.2729  165.9216 C.ar    1  UNL1        0.0875
     18 N         141.8740  139.9238  164.5957 N.ar    1  UNL1       -0.2276
     19 C         143.1355  140.6005  164.1480 C.ar    1  UNL1        0.1543
     20 N         141.6575  139.3924  161.5341 N.am    1  UNL1       -0.2994
     21 C         143.0908  139.2256  161.9439 C.2     1  UNL1        0.2488
     22 O         143.8709  138.0330  161.4756 O.2     1  UNL1       -0.2700
     23 H         141.1455  140.1751  161.8414 H       1  UNL1        0.1498
     24 C         141.0044  138.3666  160.6559 C.3     1  UNL1        0.1068
     25 C         140.5226  138.7481  159.2875 C.3     1  UNL1        0.0901
     26 C         142.6265  137.6796  158.2004 C.3     1  UNL1        0.0859
     27 N         141.4176  138.5617  158.0983 N.3     1  UNL1       -0.2949
     28 H         140.8378  138.1813  157.3503 H       1  UNL1        0.1233
@<TRIPOS>BOND
     1    26    27    1
     2    27    25    1
     3    25    24    1
     4    24    20    1
     5    20    21   am
     6    21    22    2
     7    21     1    1
     8     1     2   ar
     9     2     3   ar
    10     3     4   ar
    11     4     5   ar
    12     5     6   ar
    13     6     7    2
    14     6     8   ar
    15     8     9   ar
    16     9    10   ar
    17    10    11   ar
    18    11    12   ar
    19    12    13   ar
    20    13    14   ar
    21    14    15   ar
    22    15    16   ar
    23    16    17   ar
    24    17    18   ar
    25    18    19   ar
    26    19     1   ar
    27    19     5   ar
    28    17     8   ar
    29    16    11   ar
    30    27    28    1
    31    20    23    1
@<TRIPOS>MOLECULE
*****
 28 31 0 0 0
SMALL
GASTEIGER

@<TRIPOS>ATOM
      1 C         141.9509  143.2761  161.0238 C.ar    1  UNL1        0.0878
      2 C         141.4160  144.3818  160.1628 C.ar    1  UNL1        0.0091
      3 C         140.4492  145.3763  160.7340 C.ar    1  UNL1        0.0194
      4 C         140.0174  145.2651  162.1662 C.ar    1  UNL1        0.0844
      5 N         140.5522  144.1595  163.0272 N.ar    1  UNL1       -0.2576
      6 C         140.1204  144.0483  164.4593 C.ar    1  UNL1        0.2672
      7 O         139.1537  145.0428  165.0305 O.2     1  UNL1       -0.2665
      8 C         140.6553  142.9425  165.3203 C.ar    1  UNL1        0.0742
      9 C         140.2235  142.8314  166.7525 C.ar    1  UNL1        0.0063
     10 C         140.7584  141.7257  167.6135 C.ar    1  UNL1        0.0003
     11 C         141.7252  140.7311  167.0423 C.ar    1  UNL1        0.0015
     12 C         142.2601  139.6254  167.9033 C.ar    1  UNL1        0.0000
     13 C         143.2268  138.6309  167.3320 C.ar    1  UNL1        0.0000
     14 C         143.6587  138.7421  165.8999 C.ar    1  UNL1        0.0000
     15 C         143.1238  139.8478  165.0389 C.ar    1  UNL1        0.0015
     16 C         142.1570  140.8423  165.6101 C.ar    1  UNL1        0.0179
     17 C         141.6221  141.9480  164.7491 C.ar    1  UNL1        0.0875
     18 N         142.0539  142.0592  163.3169 N.ar    1  UNL1       -0.2276
     19 C         141.5191  143.1649  162.4560 C.ar    1  UNL1        0.1543
     20 N         142.6511  140.8119  160.5906 N.am    1  UNL1       -0.2994
     21 C         142.9176  142.2816  160.4526 C.2     1  UNL1        0.2488
     22 O         144.1511  142.7567  159.7433 O.2     1  UNL1       -0.2700
     23 H         141.8416  140.5001  161.0561 H       1  UNL1        0.1498
     24 C         143.6179  139.8174  160.0194 C.3     1  UNL1        0.1068
     25 C         143.9189  138.5508  160.7645 C.3     1  UNL1        0.0901
     26 C         141.9628  137.7345  162.2669 C.3     1  UNL1        0.0859
     27 N         142.8213  137.5686  161.0481 N.3     1  UNL1       -0.2949
     28 H         142.1957  137.5855  160.2427 H       1  UNL1        0.1233
@<TRIPOS>BOND
     1    26    27    1
     2    27    25    1
     3    25    24    1
     4    24    20    1
     5    20    21   am
     6    21    22    2
     7    21     1    1
     8     1     2   ar
     9     2     3   ar
    10     3     4   ar
    11     4     5   ar
    12     5     6   ar
    13     6     7    2
    14     6     8   ar
    15     8     9   ar
    16     9    10   ar
    17    10    11   ar
    18    11    12   ar
    19    12    13   ar
    20    13    14   ar
    21    14    15   ar
    22    15    16   ar
    23    16    17   ar
    24    17    18   ar
    25    18    19   ar
    26    19     1   ar
    27    19     5   ar
    28    17     8   ar
    29    16    11   ar
    30    27    28    1
    31    20    23    1
@<TRIPOS>MOLECULE
*****
 28 31 0 0 0
SMALL
GASTEIGER

@<TRIPOS>ATOM
      1 C         142.3441  143.8153  157.3046 C.ar    1  UNL1        0.0878
      2 C         141.4693  144.4098  156.2410 C.ar    1  UNL1        0.0091
      3 C         140.3438  145.3257  156.6210 C.ar    1  UNL1        0.0194
      4 C         140.0931  145.6471  158.0645 C.ar    1  UNL1        0.0844
      5 N         140.9679  145.0526  159.1281 N.ar    1  UNL1       -0.2576
      6 C         140.7173  145.3741  160.5717 C.ar    1  UNL1        0.2672
      7 O         139.5918  146.2900  160.9516 O.2     1  UNL1       -0.2665
      8 C         141.5921  144.7795  161.6353 C.ar    1  UNL1        0.0742
      9 C         141.3415  145.1010  163.0789 C.ar    1  UNL1        0.0063
     10 C         142.2163  144.5065  164.1425 C.ar    1  UNL1        0.0003
     11 C         143.3418  143.5905  163.7625 C.ar    1  UNL1        0.0015
     12 C         144.2166  142.9960  164.8261 C.ar    1  UNL1        0.0000
     13 C         145.3420  142.0801  164.4462 C.ar    1  UNL1        0.0000
     14 C         145.5927  141.7587  163.0026 C.ar    1  UNL1        0.0000
     15 C         144.7179  142.3532  161.9390 C.ar    1  UNL1        0.0015
     16 C         143.5925  143.2691  162.3190 C.ar    1  UNL1        0.0179
     17 C         142.7176  143.8636  161.2553 C.ar    1  UNL1        0.0875
     18 N         142.9683  143.5422  159.8118 N.ar    1  UNL1       -0.2276
     19 C         142.0935  144.1367  158.7482 C.ar    1  UNL1        0.1543
     20 N         144.8025  143.0286  157.6004 N.am    1  UNL1       -0.2994
     21 C         143.4696  142.8994  156.9247 C.2     1  UNL1        0.2488
     22 O         143.2622  141.8541  155.8689 O.2     1  UNL1       -0.2700
     23 H         144.9387  143.7146  158.2933 H       1  UNL1        0.1498
     24 C         145.9280  142.1127  157.2204 C.3     1  UNL1        0.1068
     25 C         147.2652  142.6817  156.8486 C.3     1  UNL1        0.0901
     26 C         146.9087  141.9587  154.3787 C.3     1  UNL1        0.0859
     27 N         147.7999  142.4948  155.4597 N.3     1  UNL1       -0.2949
     28 H         148.1279  143.4079  155.1450 H       1  UNL1        0.1233
@<TRIPOS>BOND
     1    26    27    1
     2    27    25    1
     3    25    24    1
     4    24    20    1
     5    20    21   am
     6    21    22    2
     7    21     1    1
     8     1     2   ar
     9     2     3   ar
    10     3     4   ar
    11     4     5   ar
    12     5     6   ar
    13     6     7    2
    14     6     8   ar
    15     8     9   ar
    16     9    10   ar
    17    10    11   ar
    18    11    12   ar
    19    12    13   ar
    20    13    14   ar
    21    14    15   ar
    22    15    16   ar
    23    16    17   ar
    24    17    18   ar
    25    18    19   ar
    26    19     1   ar
    27    19     5   ar
    28    17     8   ar
    29    16    11   ar
    30    27    28    1
    31    20    23    1
