@<TRIPOS>MOLECULE
*****
 19 21 0 0 0
SMALL
GASTEIGER

@<TRIPOS>ATOM
      1 C         139.6819  140.2178  166.8434 C.ar    1  UNL1        0.1484
      2 C         138.9311  139.8120  168.0769 C.ar    1  UNL1        0.0796
      3 C         139.4487  140.1978  169.4309 C.ar    1  UNL1        0.2016
      4 O         138.6979  139.7920  170.6644 O.2     1  UNL1       -0.2864
      5 C         140.7171  140.9895  169.5513 C.ar    1  UNL1        0.0735
      6 C         141.2347  141.3753  170.9053 C.ar    1  UNL1        0.0062
      7 C         142.5030  142.1670  171.0256 C.ar    1  UNL1        0.0003
      8 C         143.2538  142.5728  169.7921 C.ar    1  UNL1        0.0031
      9 C         142.7362  142.1870  168.4382 C.ar    1  UNL1        0.0376
     10 C         141.4679  141.3953  168.3178 C.ar    1  UNL1        0.1483
     11 O         140.9503  141.0094  166.9638 O.2     1  UNL1       -0.4533
     12 C         138.1291  139.0600  162.7816 C.ar    1  UNL1        0.1387
     13 C         138.9122  138.0723  163.5946 C.ar    1  UNL1        0.0370
     14 C         139.4298  138.4582  164.9485 C.ar    1  UNL1        0.0061
     15 C         139.1643  139.8319  165.4894 C.ar    1  UNL1        0.0349
     16 C         138.3812  140.8196  164.6764 C.ar    1  UNL1        0.0061
     17 C         137.8636  140.4337  163.3225 C.ar    1  UNL1        0.0370
     18 C         137.4422  139.7181  160.3639 C.3     1  UNL1        0.2525
     19 O         137.6115  138.6742  161.4276 O.3     1  UNL1       -0.4714
@<TRIPOS>BOND
     1    18    19    1
     2    19    12    1
     3    12    13   ar
     4    13    14   ar
     5    14    15   ar
     6    15     1    1
     7     1     2   ar
     8     2     3   ar
     9     3     4    2
    10     3     5   ar
    11     5     6   ar
    12     6     7   ar
    13     7     8   ar
    14     8     9   ar
    15     9    10   ar
    16    10    11   ar
    17    15    16   ar
    18    16    17   ar
    19    17    12   ar
    20    11     1   ar
    21    10     5   ar
@<TRIPOS>MOLECULE
*****
 19 21 0 0 0
SMALL
GASTEIGER

@<TRIPOS>ATOM
      1 C         139.8791  142.6596  165.9663 C.ar    1  UNL1        0.1484
      2 C         139.3798  141.2461  165.9132 C.ar    1  UNL1        0.0796
      3 C         139.4518  140.3788  167.1348 C.ar    1  UNL1        0.2016
      4 O         138.9525  138.9653  167.0816 O.2     1  UNL1       -0.2864
      5 C         140.0231  140.9249  168.4098 C.ar    1  UNL1        0.0735
      6 C         140.0950  140.0576  169.6315 C.ar    1  UNL1        0.0062
      7 C         140.6663  140.6038  170.9063 C.ar    1  UNL1        0.0003
      8 C         141.1656  142.0172  170.9595 C.ar    1  UNL1        0.0031
      9 C         141.0936  142.8846  169.7379 C.ar    1  UNL1        0.0376
     10 C         140.5224  142.3384  168.4630 C.ar    1  UNL1        0.1483
     11 O         140.4504  143.2057  167.2412 O.2     1  UNL1       -0.4533
     12 C         139.6633  145.2615  162.3012 C.ar    1  UNL1        0.1387
     13 C         140.9472  145.1524  163.0689 C.ar    1  UNL1        0.0370
     14 C         141.0192  144.2851  164.2906 C.ar    1  UNL1        0.0061
     15 C         139.8071  143.5269  164.7446 C.ar    1  UNL1        0.0349
     16 C         138.5232  143.6360  163.9768 C.ar    1  UNL1        0.0061
     17 C         138.4512  144.5033  162.7551 C.ar    1  UNL1        0.0370
     18 C         140.1921  145.6573  159.7885 C.3     1  UNL1        0.2525
     19 O         139.5913  146.1288  161.0794 O.3     1  UNL1       -0.4714
@<TRIPOS>BOND
     1    18    19    1
     2    19    12    1
     3    12    13   ar
     4    13    14   ar
     5    14    15   ar
     6    15     1    1
     7     1     2   ar
     8     2     3   ar
     9     3     4    2
    10     3     5   ar
    11     5     6   ar
    12     6     7   ar
    13     7     8   ar
    14     8     9   ar
    15     9    10   ar
    16    10    11   ar
    17    15    16   ar
    18    16    17   ar
    19    17    12   ar
    20    11     1   ar
    21    10     5   ar
@<TRIPOS>MOLECULE
*****
 19 21 0 0 0
SMALL
GASTEIGER

@<TRIPOS>ATOM
      1 C         142.5975  140.0270  166.4639 C.ar    1  UNL1        0.1484
      2 C         142.9320  139.0790  167.5772 C.ar    1  UNL1        0.0796
      3 C         142.5117  139.3939  168.9822 C.ar    1  UNL1        0.2016
      4 O         142.8463  138.4459  170.0955 O.2     1  UNL1       -0.2864
      5 C         141.7568  140.6568  169.2741 C.ar    1  UNL1        0.0735
      6 C         141.3365  140.9717  170.6791 C.ar    1  UNL1        0.0062
      7 C         140.5816  142.2347  170.9708 C.ar    1  UNL1        0.0003
      8 C         140.2470  143.1826  169.8576 C.ar    1  UNL1        0.0031
      9 C         140.6673  142.8677  168.4525 C.ar    1  UNL1        0.0376
     10 C         141.4222  141.6048  168.1608 C.ar    1  UNL1        0.1483
     11 O         141.8426  141.2899  166.7557 O.2     1  UNL1       -0.4533
     12 C         143.8584  139.0820  162.2488 C.ar    1  UNL1        0.1387
     13 C         142.7797  138.2745  162.9078 C.ar    1  UNL1        0.0370
     14 C         142.3594  138.5895  164.3128 C.ar    1  UNL1        0.0061
     15 C         143.0178  139.7120  165.0589 C.ar    1  UNL1        0.0349
     16 C         144.0965  140.5195  164.3999 C.ar    1  UNL1        0.0061
     17 C         144.5168  140.2045  162.9949 C.ar    1  UNL1        0.0370
     18 C         143.7472  139.5812  159.7016 C.3     1  UNL1        0.2525
     19 O         144.2787  138.7670  160.8438 O.3     1  UNL1       -0.4714
@<TRIPOS>BOND
     1    18    19    1
     2    19    12    1
     3    12    13   ar
     4    13    14   ar
     5    14    15   ar
     6    15     1    1
     7     1     2   ar
     8     2     3   ar
     9     3     4    2
    10     3     5   ar
    11     5     6   ar
    12     6     7   ar
    13     7     8   ar
    14     8     9   ar
    15     9    10   ar
    16    10    11   ar
    17    15    16   ar
    18    16    17   ar
    19    17    12   ar
    20    11     1   ar
    21    10     5   ar
@<TRIPOS>MOLECULE
*****
 19 21 0 0 0
SMALL
GASTEIGER

@<TRIPOS>ATOM
      1 C         140.5976  142.7613  166.6427 C.ar    1  UNL1        0.1484
      2 C         140.0975  143.2434  167.9722 C.ar    1  UNL1        0.0796
      3 C         140.4357  142.4842  169.2208 C.ar    1  UNL1        0.2016
      4 O         139.9356  142.9663  170.5503 O.2     1  UNL1       -0.2864
      5 C         141.2741  141.2429  169.1401 C.ar    1  UNL1        0.0735
      6 C         141.6123  140.4838  170.3888 C.ar    1  UNL1        0.0062
      7 C         142.4506  139.2426  170.3080 C.ar    1  UNL1        0.0003
      8 C         142.9507  138.7605  168.9785 C.ar    1  UNL1        0.0031
      9 C         142.6125  139.5197  167.7298 C.ar    1  UNL1        0.0376
     10 C         141.7742  140.7609  167.8106 C.ar    1  UNL1        0.1483
     11 O         141.4359  141.5201  166.5619 O.2     1  UNL1       -0.4533
     12 C         139.5829  145.0389  162.8966 C.ar    1  UNL1        0.1387
     13 C         141.0134  144.7212  163.2169 C.ar    1  UNL1        0.0370
     14 C         141.3516  143.9620  164.4656 C.ar    1  UNL1        0.0061
     15 C         140.2593  143.5205  165.3940 C.ar    1  UNL1        0.0349
     16 C         138.8288  143.8382  165.0737 C.ar    1  UNL1        0.0061
     17 C         138.4905  144.5974  163.8250 C.ar    1  UNL1        0.0370
     18 C         140.1472  145.7161  160.4526 C.3     1  UNL1        0.2525
     19 O         139.2446  145.7981  161.6479 O.3     1  UNL1       -0.4714
@<TRIPOS>BOND
     1    18    19    1
     2    19    12    1
     3    12    13   ar
     4    13    14   ar
     5    14    15   ar
     6    15     1    1
     7     1     2   ar
     8     2     3   ar
     9     3     4    2
    10     3     5   ar
    11     5     6   ar
    12     6     7   ar
    13     7     8   ar
    14     8     9   ar
    15     9    10   ar
    16    10    11   ar
    17    15    16   ar
    18    16    17   ar
    19    17    12   ar
    20    11     1   ar
    21    10     5   ar
@<TRIPOS>MOLECULE
*****
 19 21 0 0 0
SMALL
GASTEIGER

@<TRIPOS>ATOM
      1 C         139.0069  139.7917  164.6677 C.ar    1  UNL1        0.1484
      2 C         138.1775  138.9046  165.5482 C.ar    1  UNL1        0.0796
      3 C         138.2461  139.0522  167.0393 C.ar    1  UNL1        0.2016
      4 O         137.4168  138.1651  167.9197 O.2     1  UNL1       -0.2864
      5 C         139.1442  140.0869  167.6500 C.ar    1  UNL1        0.0735
      6 C         139.2128  140.2345  169.1411 C.ar    1  UNL1        0.0062
      7 C         140.1108  141.2692  169.7518 C.ar    1  UNL1        0.0003
      8 C         140.9402  142.1563  168.8713 C.ar    1  UNL1        0.0031
      9 C         140.8715  142.0087  167.3802 C.ar    1  UNL1        0.0376
     10 C         139.9735  140.9740  166.7696 C.ar    1  UNL1        0.1483
     11 O         139.9049  140.8264  165.2784 O.2     1  UNL1       -0.4533
     12 C         138.8009  139.3489  160.1943 C.ar    1  UNL1        0.1387
     13 C         138.6539  140.7035  160.8214 C.ar    1  UNL1        0.0370
     14 C         138.7225  140.8511  162.3125 C.ar    1  UNL1        0.0061
     15 C         138.9382  139.6441  163.1765 C.ar    1  UNL1        0.0349
     16 C         139.0852  138.2894  162.5494 C.ar    1  UNL1        0.0061
     17 C         139.0166  138.1419  161.0583 C.ar    1  UNL1        0.0370
     18 C         139.9026  138.6416  157.9502 C.3     1  UNL1        0.2525
     19 O         138.7322  139.2013  158.7031 O.3     1  UNL1       -0.4714
@<TRIPOS>BOND
     1    18    19    1
     2    19    12    1
     3    12    13   ar
     4    13    14   ar
     5    14    15   ar
     6    15     1    1
     7     1     2   ar
     8     2     3   ar
     9     3     4    2
    10     3     5   ar
    11     5     6   ar
    12     6     7   ar
    13     7     8   ar
    14     8     9   ar
    15     9    10   ar
    16    10    11   ar
    17    15    16   ar
    18    16    17   ar
    19    17    12   ar
    20    11     1   ar
    21    10     5   ar
@<TRIPOS>MOLECULE
*****
 19 21 0 0 0
SMALL
GASTEIGER

@<TRIPOS>ATOM
      1 C         140.2986  140.5459  165.9621 C.ar    1  UNL1        0.1484
      2 C         141.3444  139.5646  166.4021 C.ar    1  UNL1        0.0796
      3 C         142.1156  139.8066  167.6656 C.ar    1  UNL1        0.2016
      4 O         143.1613  138.8253  168.1055 O.2     1  UNL1       -0.2864
      5 C         141.8412  141.0298  168.4893 C.ar    1  UNL1        0.0735
      6 C         142.6124  141.2717  169.7528 C.ar    1  UNL1        0.0062
      7 C         142.3380  142.4949  170.5764 C.ar    1  UNL1        0.0003
      8 C         141.2922  143.4762  170.1365 C.ar    1  UNL1        0.0031
      9 C         140.5210  143.2343  168.8730 C.ar    1  UNL1        0.0376
     10 C         140.7954  142.0111  168.0494 C.ar    1  UNL1        0.1483
     11 O         140.0242  141.7691  166.7857 O.2     1  UNL1       -0.4533
     12 C         137.9850  139.8200  162.1714 C.ar    1  UNL1        0.1387
     13 C         139.1804  138.9734  162.4942 C.ar    1  UNL1        0.0370
     14 C         139.9516  139.2154  163.7577 C.ar    1  UNL1        0.0061
     15 C         139.5274  140.3040  164.6985 C.ar    1  UNL1        0.0349
     16 C         138.3319  141.1505  164.3757 C.ar    1  UNL1        0.0061
     17 C         137.5608  140.9085  163.1121 C.ar    1  UNL1        0.0370
     18 C         137.7462  140.0764  159.5970 C.3     1  UNL1        0.2525
     19 O         137.2137  139.5780  160.9077 O.3     1  UNL1       -0.4714
@<TRIPOS>BOND
     1    18    19    1
     2    19    12    1
     3    12    13   ar
     4    13    14   ar
     5    14    15   ar
     6    15     1    1
     7     1     2   ar
     8     2     3   ar
     9     3     4    2
    10     3     5   ar
    11     5     6   ar
    12     6     7   ar
    13     7     8   ar
    14     8     9   ar
    15     9    10   ar
    16    10    11   ar
    17    15    16   ar
    18    16    17   ar
    19    17    12   ar
    20    11     1   ar
    21    10     5   ar
@<TRIPOS>MOLECULE
*****
 19 21 0 0 0
SMALL
GASTEIGER

@<TRIPOS>ATOM
      1 C         141.3149  139.7872  166.3763 C.ar    1  UNL1        0.1484
      2 C         140.0719  139.4862  167.1601 C.ar    1  UNL1        0.0796
      3 C         139.8742  140.0961  168.5161 C.ar    1  UNL1        0.2016
      4 O         138.6311  139.7952  169.2999 O.2     1  UNL1       -0.2864
      5 C         140.9195  141.0071  169.0885 C.ar    1  UNL1        0.0735
      6 C         140.7218  141.6170  170.4445 C.ar    1  UNL1        0.0062
      7 C         141.7671  142.5279  171.0168 C.ar    1  UNL1        0.0003
      8 C         143.0101  142.8288  170.2330 C.ar    1  UNL1        0.0031
      9 C         143.2079  142.2189  168.8770 C.ar    1  UNL1        0.0376
     10 C         142.1625  141.3081  168.3047 C.ar    1  UNL1        0.1483
     11 O         142.3602  140.6981  166.9486 O.2     1  UNL1       -0.4533
     12 C         141.9080  137.9575  162.3081 C.ar    1  UNL1        0.1387
     13 C         142.5171  139.2906  162.6269 C.ar    1  UNL1        0.0370
     14 C         142.3194  139.9005  163.9829 C.ar    1  UNL1        0.0061
     15 C         141.5126  139.1772  165.0202 C.ar    1  UNL1        0.0349
     16 C         140.9035  137.8441  164.7015 C.ar    1  UNL1        0.0061
     17 C         141.1012  137.2342  163.3454 C.ar    1  UNL1        0.0370
     18 C         142.9172  138.0682  159.9166 C.3     1  UNL1        0.2525
     19 O         142.1057  137.3475  160.9520 O.3     1  UNL1       -0.4714
@<TRIPOS>BOND
     1    18    19    1
     2    19    12    1
     3    12    13   ar
     4    13    14   ar
     5    14    15   ar
     6    15     1    1
     7     1     2   ar
     8     2     3   ar
     9     3     4    2
    10     3     5   ar
    11     5     6   ar
    12     6     7   ar
    13     7     8   ar
    14     8     9   ar
    15     9    10   ar
    16    10    11   ar
    17    15    16   ar
    18    16    17   ar
    19    17    12   ar
    20    11     1   ar
    21    10     5   ar
@<TRIPOS>MOLECULE
*****
 19 21 0 0 0
SMALL
GASTEIGER

@<TRIPOS>ATOM
      1 C         140.1407  142.3432  166.2594 C.ar    1  UNL1        0.1484
      2 C         139.9184  143.3848  167.3156 C.ar    1  UNL1        0.0796
      3 C         140.4238  143.1591  168.7097 C.ar    1  UNL1        0.2016
      4 O         140.2014  144.2007  169.7660 O.2     1  UNL1       -0.2864
      5 C         141.1517  141.8917  169.0476 C.ar    1  UNL1        0.0735
      6 C         141.6571  141.6660  170.4417 C.ar    1  UNL1        0.0062
      7 C         142.3849  140.3987  170.7795 C.ar    1  UNL1        0.0003
      8 C         142.6073  139.3572  169.7233 C.ar    1  UNL1        0.0031
      9 C         142.1019  139.5829  168.3292 C.ar    1  UNL1        0.0376
     10 C         141.3741  140.8502  167.9914 C.ar    1  UNL1        0.1483
     11 O         140.8686  141.0759  166.5972 O.2     1  UNL1       -0.4533
     12 C         138.6243  143.0205  162.0771 C.ar    1  UNL1        0.1387
     13 C         137.6605  142.7059  163.1825 C.ar    1  UNL1        0.0370
     14 C         138.1660  142.4802  164.5766 C.ar    1  UNL1        0.0061
     15 C         139.6353  142.5690  164.8652 C.ar    1  UNL1        0.0349
     16 C         140.5991  142.8836  163.7597 C.ar    1  UNL1        0.0061
     17 C         140.0936  143.1094  162.3657 C.ar    1  UNL1        0.0370
     18 C         138.4890  142.2913  159.5871 C.3     1  UNL1        0.2525
     19 O         138.1188  143.2463  160.6829 O.3     1  UNL1       -0.4714
@<TRIPOS>BOND
     1    18    19    1
     2    19    12    1
     3    12    13   ar
     4    13    14   ar
     5    14    15   ar
     6    15     1    1
     7     1     2   ar
     8     2     3   ar
     9     3     4    2
    10     3     5   ar
    11     5     6   ar
    12     6     7   ar
    13     7     8   ar
    14     8     9   ar
    15     9    10   ar
    16    10    11   ar
    17    15    16   ar
    18    16    17   ar
    19    17    12   ar
    20    11     1   ar
    21    10     5   ar
@<TRIPOS>MOLECULE
*****
 19 21 0 0 0
SMALL
GASTEIGER

@<TRIPOS>ATOM
      1 C         141.2774  142.6125  166.1322 C.ar    1  UNL1        0.1484
      2 C         139.9789  143.3430  166.3066 C.ar    1  UNL1        0.0796
      3 C         139.4532  144.2119  165.2028 C.ar    1  UNL1        0.2016
      4 O         138.1547  144.9424  165.3771 O.2     1  UNL1       -0.2864
      5 C         140.2258  144.3504  163.9245 C.ar    1  UNL1        0.0735
      6 C         139.7001  145.2194  162.8207 C.ar    1  UNL1        0.0062
      7 C         140.4728  145.3579  161.5425 C.ar    1  UNL1        0.0003
      8 C         141.7712  144.6274  161.3682 C.ar    1  UNL1        0.0031
      9 C         142.2970  143.7584  162.4720 C.ar    1  UNL1        0.0376
     10 C         141.5243  143.6200  163.7502 C.ar    1  UNL1        0.1483
     11 O         142.0501  142.7510  164.8541 O.2     1  UNL1       -0.4533
     12 C         142.8546  140.0057  169.4438 C.ar    1  UNL1        0.1387
     13 C         142.7090  141.4833  169.6572 C.ar    1  UNL1        0.0370
     14 C         142.1833  142.3522  168.5533 C.ar    1  UNL1        0.0061
     15 C         141.8031  141.7435  167.2361 C.ar    1  UNL1        0.0349
     16 C         141.9487  140.2659  167.0228 C.ar    1  UNL1        0.0061
     17 C         142.4745  139.3970  168.1266 C.ar    1  UNL1        0.0370
     18 C         143.2654  137.6445  170.4469 C.3     1  UNL1        0.2525
     19 O         143.3804  139.1367  170.5477 O.3     1  UNL1       -0.4714
@<TRIPOS>BOND
     1    18    19    1
     2    19    12    1
     3    12    13   ar
     4    13    14   ar
     5    14    15   ar
     6    15     1    1
     7     1     2   ar
     8     2     3   ar
     9     3     4    2
    10     3     5   ar
    11     5     6   ar
    12     6     7   ar
    13     7     8   ar
    14     8     9   ar
    15     9    10   ar
    16    10    11   ar
    17    15    16   ar
    18    16    17   ar
    19    17    12   ar
    20    11     1   ar
    21    10     5   ar
