@<TRIPOS>MOLECULE
*****
 41 45 0 0 0
SMALL
GASTEIGER

@<TRIPOS>ATOM
      1 C         138.1548  139.9310  159.5448 C.3     1  UNL1        0.0758
      2 C         137.9244  140.6839  158.2681 C.3     1  UNL1        0.0370
      3 C         138.7186  140.3425  157.0424 C.3     1  UNL1        0.0741
      4 N         139.7433  139.2483  157.0933 N.3     1  UNL1       -0.2688
      5 C         139.9737  138.4953  158.3699 C.3     1  UNL1        0.0741
      6 C         139.1795  138.8367  159.5957 C.3     1  UNL1        0.0370
      7 O         139.4493  141.4206  161.8044 O.2     1  UNL1       -0.2528
      8 C         138.0078  141.0171  161.9004 C.2     1  UNL1        0.3010
      9 N         137.3605  140.2723  160.7707 N.am    1  UNL1       -0.2905
     10 N         137.2135  141.3584  163.1263 N.am    1  UNL1       -0.2848
     11 H         136.4144  140.0075  160.8338 H       1  UNL1        0.1509
     12 H         136.2674  141.0936  163.1894 H       1  UNL1        0.1513
     13 C         137.8608  142.1032  164.2560 C.3     1  UNL1        0.1200
     14 C         138.5795  141.3505  165.3362 C.ar    1  UNL1       -0.0025
     15 C         139.6789  142.0160  166.1099 C.ar    1  UNL1       -0.0026
     16 C         140.3976  141.2633  167.1901 C.ar    1  UNL1       -0.0003
     17 C         140.0170  139.8451  167.4966 C.ar    1  UNL1       -0.0000
     18 C         138.9177  139.1796  166.7230 C.ar    1  UNL1       -0.0003
     19 C         138.1989  139.9323  165.6427 C.ar    1  UNL1       -0.0026
     20 C         137.7893  143.6007  164.3056 C.3     1  UNL1        0.1533
     21 N         138.7562  144.4245  163.5079 N.ar    1  UNL1       -0.2280
     22 C         140.1365  144.8252  163.9370 C.ar    1  UNL1        0.1973
     23 N         140.7460  145.6406  162.8353 N.ar    1  UNL1       -0.2007
     24 C         139.7423  145.7439  161.7253 C.ar    1  UNL1        0.2210
     25 N         138.5126  144.9923  162.1410 N.ar    1  UNL1       -0.1451
     26 C         140.5376  138.9069  155.8674 C.3     1  UNL1        0.1007
     27 C         140.8688  137.4761  155.5627 C.ar    1  UNL1        0.0129
     28 C         140.4501  136.7153  154.3397 C.ar    1  UNL1        0.0176
     29 C         140.9995  135.3238  154.4486 C.ar    1  UNL1        0.0799
     30 N         141.7578  135.2245  155.7390 N.ar    1  UNL1       -0.3038
     31 C         141.6771  136.5547  156.4275 C.ar    1  UNL1        0.0772
     32 C         142.4715  134.0086  156.2510 C.ar    1  UNL1        0.0640
     33 C         141.9920  132.6403  155.8670 C.ar    1  UNL1        0.0175
     34 C         142.7057  131.4243  156.3789 C.ar    1  UNL1        0.0053
     35 C         143.8989  131.5768  157.2749 C.ar    1  UNL1        0.0715
     36 C         144.3785  132.9452  157.6590 C.ar    1  UNL1        0.0053
     37 C         143.6648  134.1611  157.1470 C.ar    1  UNL1        0.0175
     38 C         144.6126  130.3609  157.7868 C.3     1  UNL1        0.4186
     39 F         145.3263  129.1448  158.2988 F       1  UNL1       -0.1659
     40 F         145.6613  131.2369  158.4056 F       1  UNL1       -0.1659
     41 F         143.5639  129.4847  157.1681 F       1  UNL1       -0.1659
@<TRIPOS>BOND
     1     7     8    2
     2     8     9   am
     3     9     1    1
     4     1     2    1
     5     2     3    1
     6     3     4    1
     7     4    26    1
     8    26    27    1
     9    27    28   ar
    10    28    29   ar
    11    29    30   ar
    12    30    32    1
    13    32    33   ar
    14    33    34   ar
    15    34    35   ar
    16    35    38    1
    17    38    39    1
    18    38    40    1
    19    38    41    1
    20    35    36   ar
    21    36    37   ar
    22    30    31   ar
    23     4     5    1
    24     5     6    1
    25     8    10   am
    26    10    13    1
    27    13    20    1
    28    20    21    1
    29    21    22   ar
    30    22    23   ar
    31    23    24   ar
    32    24    25   ar
    33    13    14    1
    34    14    15   ar
    35    15    16   ar
    36    16    17   ar
    37    17    18   ar
    38    18    19   ar
    39     6     1    1
    40    25    21   ar
    41    19    14   ar
    42    31    27   ar
    43    37    32   ar
    44     9    11    1
    45    10    12    1
@<TRIPOS>MOLECULE
*****
 41 45 0 0 0
SMALL
GASTEIGER

@<TRIPOS>ATOM
      1 C         140.7324  138.1761  161.1166 C.3     1  UNL1        0.0758
      2 C         142.1903  137.8404  161.0085 C.3     1  UNL1        0.0370
      3 C         142.8583  137.8230  159.6656 C.3     1  UNL1        0.0741
      4 N         142.0684  138.1412  158.4308 N.3     1  UNL1       -0.2688
      5 C         140.6105  138.4769  158.5389 C.3     1  UNL1        0.0741
      6 C         139.9425  138.4943  159.8818 C.3     1  UNL1        0.0370
      7 O         141.1721  140.4849  162.9809 O.2     1  UNL1       -0.2528
      8 C         140.2842  139.3479  163.3917 C.2     1  UNL1        0.3010
      9 N         140.0643  138.1935  162.4595 N.am    1  UNL1       -0.2905
     10 N         139.6161  139.3653  164.7346 N.am    1  UNL1       -0.2848
     11 H         139.4815  137.4472  162.7291 H       1  UNL1        0.1509
     12 H         139.0333  138.6191  165.0042 H       1  UNL1        0.1513
     13 C         139.8359  140.5198  165.6667 C.3     1  UNL1        0.1200
     14 C         139.2859  141.8733  165.3270 C.ar    1  UNL1       -0.0025
     15 C         140.0153  143.1099  165.7616 C.ar    1  UNL1       -0.0026
     16 C         139.4653  144.4634  165.4218 C.ar    1  UNL1       -0.0003
     17 C         138.1859  144.5804  164.6475 C.ar    1  UNL1       -0.0000
     18 C         137.4566  143.3438  164.2129 C.ar    1  UNL1       -0.0003
     19 C         138.0066  141.9902  164.5527 C.ar    1  UNL1       -0.0026
     20 C         140.6058  140.3207  166.9386 C.3     1  UNL1        0.1533
     21 N         139.9311  140.5219  168.2630 N.ar    1  UNL1       -0.2280
     22 C         140.1988  141.6383  169.2283 C.ar    1  UNL1        0.1973
     23 N         139.3033  141.4484  170.4166 N.ar    1  UNL1       -0.2007
     24 C         138.4821  140.2145  170.1858 C.ar    1  UNL1        0.2210
     25 N         138.8701  139.6419  168.8548 N.ar    1  UNL1       -0.1451
     26 C         142.7365  138.1238  157.0879 C.3     1  UNL1        0.1007
     27 C         142.9459  136.8229  156.3712 C.ar    1  UNL1        0.0129
     28 C         142.8101  136.5980  154.8944 C.ar    1  UNL1        0.0176
     29 C         143.1081  135.1546  154.6159 C.ar    1  UNL1        0.0799
     30 N         143.4281  134.4872  155.9207 N.ar    1  UNL1       -0.3038
     31 C         143.3278  135.5183  157.0055 C.ar    1  UNL1        0.0772
     32 C         143.7856  133.0425  156.1077 C.ar    1  UNL1        0.0640
     33 C         143.5769  132.0671  154.9875 C.ar    1  UNL1        0.0175
     34 C         143.9343  130.6224  155.1746 C.ar    1  UNL1        0.0053
     35 C         144.5005  130.1531  156.4819 C.ar    1  UNL1        0.0715
     36 C         144.7092  131.1285  157.6022 C.ar    1  UNL1        0.0053
     37 C         144.3518  132.5732  157.4151 C.ar    1  UNL1        0.0175
     38 C         144.8579  128.7084  156.6689 C.3     1  UNL1        0.4186
     39 F         145.2154  127.2636  156.8559 F       1  UNL1       -0.1659
     40 F         144.5814  128.8302  158.1381 F       1  UNL1       -0.1659
     41 F         145.1345  128.5865  155.1996 F       1  UNL1       -0.1659
@<TRIPOS>BOND
     1     7     8    2
     2     8     9   am
     3     9     1    1
     4     1     2    1
     5     2     3    1
     6     3     4    1
     7     4    26    1
     8    26    27    1
     9    27    28   ar
    10    28    29   ar
    11    29    30   ar
    12    30    32    1
    13    32    33   ar
    14    33    34   ar
    15    34    35   ar
    16    35    38    1
    17    38    39    1
    18    38    40    1
    19    38    41    1
    20    35    36   ar
    21    36    37   ar
    22    30    31   ar
    23     4     5    1
    24     5     6    1
    25     8    10   am
    26    10    13    1
    27    13    20    1
    28    20    21    1
    29    21    22   ar
    30    22    23   ar
    31    23    24   ar
    32    24    25   ar
    33    13    14    1
    34    14    15   ar
    35    15    16   ar
    36    16    17   ar
    37    17    18   ar
    38    18    19   ar
    39     6     1    1
    40    25    21   ar
    41    19    14   ar
    42    31    27   ar
    43    37    32   ar
    44     9    11    1
    45    10    12    1
@<TRIPOS>MOLECULE
*****
 41 45 0 0 0
SMALL
GASTEIGER

@<TRIPOS>ATOM
      1 C         140.0776  139.5027  161.7184 C.3     1  UNL1        0.0758
      2 C         139.7746  140.3761  160.5372 C.3     1  UNL1        0.0370
      3 C         140.4830  140.1484  159.2348 C.3     1  UNL1        0.0741
      4 N         141.4945  139.0474  159.1136 N.3     1  UNL1       -0.2688
      5 C         141.7975  138.1740  160.2948 C.3     1  UNL1        0.0741
      6 C         141.0891  138.4016  161.5972 C.3     1  UNL1        0.0370
      7 O         141.4200  141.0584  163.9043 O.2     1  UNL1       -0.2528
      8 C         140.0404  140.5081  164.1138 C.2     1  UNL1        0.3010
      9 N         139.3692  139.7303  163.0209 N.am    1  UNL1       -0.2905
     10 N         139.3319  140.7357  165.4163 N.am    1  UNL1       -0.2848
     11 H         138.4637  139.3691  163.1584 H       1  UNL1        0.1509
     12 H         138.4265  140.3745  165.5538 H       1  UNL1        0.1513
     13 C         140.0031  141.5135  166.5091 C.3     1  UNL1        0.1200
     14 C         140.6402  140.7929  167.6601 C.ar    1  UNL1       -0.0025
     15 C         139.9599  140.7652  168.9968 C.ar    1  UNL1       -0.0026
     16 C         140.5970  140.0446  170.1477 C.ar    1  UNL1       -0.0003
     17 C         141.9143  139.3515  169.9621 C.ar    1  UNL1       -0.0000
     18 C         142.5945  139.3791  168.6256 C.ar    1  UNL1       -0.0003
     19 C         141.9574  140.0998  167.4745 C.ar    1  UNL1       -0.0026
     20 C         140.0372  143.0120  166.4511 C.3     1  UNL1        0.1533
     21 N         139.5922  143.7247  165.2085 N.ar    1  UNL1       -0.2280
     22 C         140.4485  144.5940  164.3361 C.ar    1  UNL1        0.1973
     23 N         139.5983  145.0999  163.2087 N.ar    1  UNL1       -0.2007
     24 C         138.2164  144.5432  163.3843 C.ar    1  UNL1        0.2210
     25 N         138.2127  143.6934  164.6203 N.ar    1  UNL1       -0.1451
     26 C         142.2029  138.8198  157.8111 C.3     1  UNL1        0.1007
     27 C         142.0451  137.5143  157.0896 C.ar    1  UNL1        0.0129
     28 C         140.9192  137.1460  156.1694 C.ar    1  UNL1        0.0176
     29 C         141.1637  135.7519  155.6727 C.ar    1  UNL1        0.0799
     30 N         142.4406  135.2585  156.2860 N.ar    1  UNL1       -0.3038
     31 C         142.9853  136.3478  157.1617 C.ar    1  UNL1        0.0772
     32 C         143.0635  133.9123  156.0628 C.ar    1  UNL1        0.0640
     33 C         143.9484  133.3117  157.1144 C.ar    1  UNL1        0.0175
     34 C         144.5713  131.9655  156.8912 C.ar    1  UNL1        0.0053
     35 C         144.3092  131.2200  155.6164 C.ar    1  UNL1        0.0715
     36 C         143.4242  131.8206  154.5647 C.ar    1  UNL1        0.0053
     37 C         142.8013  133.1667  154.7879 C.ar    1  UNL1        0.0175
     38 C         144.9320  129.8738  155.3932 C.3     1  UNL1        0.4186
     39 F         145.5548  128.5276  155.1698 F       1  UNL1       -0.1659
     40 F         144.9653  129.6435  156.8750 F       1  UNL1       -0.1659
     41 F         144.8987  130.1041  153.9112 F       1  UNL1       -0.1659
@<TRIPOS>BOND
     1     7     8    2
     2     8     9   am
     3     9     1    1
     4     1     2    1
     5     2     3    1
     6     3     4    1
     7     4    26    1
     8    26    27    1
     9    27    28   ar
    10    28    29   ar
    11    29    30   ar
    12    30    32    1
    13    32    33   ar
    14    33    34   ar
    15    34    35   ar
    16    35    38    1
    17    38    39    1
    18    38    40    1
    19    38    41    1
    20    35    36   ar
    21    36    37   ar
    22    30    31   ar
    23     4     5    1
    24     5     6    1
    25     8    10   am
    26    10    13    1
    27    13    20    1
    28    20    21    1
    29    21    22   ar
    30    22    23   ar
    31    23    24   ar
    32    24    25   ar
    33    13    14    1
    34    14    15   ar
    35    15    16   ar
    36    16    17   ar
    37    17    18   ar
    38    18    19   ar
    39     6     1    1
    40    25    21   ar
    41    19    14   ar
    42    31    27   ar
    43    37    32   ar
    44     9    11    1
    45    10    12    1
@<TRIPOS>MOLECULE
*****
 41 45 0 0 0
SMALL
GASTEIGER

@<TRIPOS>ATOM
      1 C         143.4030  139.6156  160.9167 C.3     1  UNL1        0.0758
      2 C         142.9563  138.2299  160.5560 C.3     1  UNL1        0.0370
      3 C         142.8738  137.8196  159.1156 C.3     1  UNL1        0.0741
      4 N         143.2380  138.7951  158.0358 N.3     1  UNL1       -0.2688
      5 C         143.6847  140.1808  158.3965 C.3     1  UNL1        0.0741
      6 C         143.7672  140.5911  159.8369 C.3     1  UNL1        0.0370
      7 O         141.0301  140.8691  162.2576 O.2     1  UNL1       -0.2528
      8 C         142.2991  140.6527  163.0276 C.2     1  UNL1        0.3010
      9 N         143.4855  140.0260  162.3571 N.am    1  UNL1       -0.2905
     10 N         142.3816  141.0630  164.4680 N.am    1  UNL1       -0.2848
     11 H         144.3184  139.8840  162.8625 H       1  UNL1        0.1509
     12 H         143.2145  140.9210  164.9734 H       1  UNL1        0.1513
     13 C         141.1952  141.6898  165.1385 C.3     1  UNL1        0.1200
     14 C         140.1982  140.8292  165.8564 C.ar    1  UNL1       -0.0025
     15 C         140.2239  140.7411  167.3536 C.ar    1  UNL1       -0.0026
     16 C         139.2268  139.8806  168.0715 C.ar    1  UNL1       -0.0003
     17 C         138.2041  139.1081  167.2922 C.ar    1  UNL1       -0.0000
     18 C         138.1783  139.1963  165.7950 C.ar    1  UNL1       -0.0003
     19 C         139.1754  140.0568  165.0771 C.ar    1  UNL1       -0.0026
     20 C         141.0058  143.1770  165.0911 C.3     1  UNL1        0.1533
     21 N         140.1981  143.7954  163.9888 N.ar    1  UNL1       -0.2280
     22 C         138.8472  143.3393  163.5231 C.ar    1  UNL1        0.1973
     23 N         138.4136  144.2406  162.4052 N.ar    1  UNL1       -0.2007
     24 C         139.4966  145.2537  162.1799 C.ar    1  UNL1        0.2210
     25 N         140.5995  144.9786  163.1587 N.ar    1  UNL1       -0.1451
     26 C         143.1555  138.3847  156.5954 C.3     1  UNL1        0.1007
     27 C         142.7765  136.9784  156.2367 C.ar    1  UNL1        0.0129
     28 C         141.3876  136.4817  155.9646 C.ar    1  UNL1        0.0176
     29 C         141.4726  135.0182  155.6468 C.ar    1  UNL1        0.0799
     30 N         142.9141  134.6104  155.7226 N.ar    1  UNL1       -0.3038
     31 C         143.7200  135.8219  156.0871 C.ar    1  UNL1        0.0772
     32 C         143.4548  133.2330  155.4769 C.ar    1  UNL1        0.0640
     33 C         144.4776  132.6518  156.4075 C.ar    1  UNL1        0.0175
     34 C         145.0183  131.2744  156.1618 C.ar    1  UNL1        0.0053
     35 C         144.5362  130.4782  154.9856 C.ar    1  UNL1        0.0715
     36 C         143.5134  131.0594  154.0549 C.ar    1  UNL1        0.0053
     37 C         142.9727  132.4368  154.3006 C.ar    1  UNL1        0.0175
     38 C         145.0769  129.1008  154.7399 C.3     1  UNL1        0.4186
     39 F         145.6176  127.7234  154.4941 F       1  UNL1       -0.1659
     40 F         144.9265  128.7817  156.1978 F       1  UNL1       -0.1659
     41 F         145.2274  129.4199  153.2819 F       1  UNL1       -0.1659
@<TRIPOS>BOND
     1     7     8    2
     2     8     9   am
     3     9     1    1
     4     1     2    1
     5     2     3    1
     6     3     4    1
     7     4    26    1
     8    26    27    1
     9    27    28   ar
    10    28    29   ar
    11    29    30   ar
    12    30    32    1
    13    32    33   ar
    14    33    34   ar
    15    34    35   ar
    16    35    38    1
    17    38    39    1
    18    38    40    1
    19    38    41    1
    20    35    36   ar
    21    36    37   ar
    22    30    31   ar
    23     4     5    1
    24     5     6    1
    25     8    10   am
    26    10    13    1
    27    13    20    1
    28    20    21    1
    29    21    22   ar
    30    22    23   ar
    31    23    24   ar
    32    24    25   ar
    33    13    14    1
    34    14    15   ar
    35    15    16   ar
    36    16    17   ar
    37    17    18   ar
    38    18    19   ar
    39     6     1    1
    40    25    21   ar
    41    19    14   ar
    42    31    27   ar
    43    37    32   ar
    44     9    11    1
    45    10    12    1
@<TRIPOS>MOLECULE
*****
 41 45 0 0 0
SMALL
GASTEIGER

@<TRIPOS>ATOM
      1 C         141.9623  143.3308  157.6159 C.3     1  UNL1        0.0758
      2 C         143.1513  142.4893  157.2583 C.3     1  UNL1        0.0370
      3 C         143.0240  141.4135  156.2209 C.3     1  UNL1        0.0741
      4 N         141.7076  141.1791  155.5411 N.3     1  UNL1       -0.2688
      5 C         140.5185  142.0206  155.8988 C.3     1  UNL1        0.0741
      6 C         140.6458  143.0964  156.9362 C.3     1  UNL1        0.0370
      7 O         141.7943  142.6333  160.5289 O.2     1  UNL1       -0.2528
      8 C         142.0056  144.0579  160.1098 C.2     1  UNL1        0.3010
      9 N         142.0896  144.4067  158.6534 N.am    1  UNL1       -0.2905
     10 N         142.1329  145.1339  161.1473 N.am    1  UNL1       -0.2848
     11 H         142.2283  145.3418  158.3784 H       1  UNL1        0.1509
     12 H         142.2716  146.0689  160.8723 H       1  UNL1        0.1513
     13 C         142.0489  144.7851  162.6037 C.3     1  UNL1        0.1200
     14 C         140.7137  144.5313  163.2383 C.ar    1  UNL1       -0.0025
     15 C         140.6365  144.0624  164.6611 C.ar    1  UNL1       -0.0026
     16 C         139.3013  143.8086  165.2957 C.ar    1  UNL1       -0.0003
     17 C         138.0432  144.0237  164.5076 C.ar    1  UNL1       -0.0000
     18 C         138.1204  144.4926  163.0849 C.ar    1  UNL1       -0.0003
     19 C         139.4557  144.7464  162.4502 C.ar    1  UNL1       -0.0026
     20 C         143.3001  144.6901  163.4256 C.3     1  UNL1        0.1533
     21 N         144.1458  143.4528  163.3639 N.ar    1  UNL1       -0.2280
     22 C         144.8329  142.9145  162.1440 C.ar    1  UNL1        0.1973
     23 N         145.5647  141.6656  162.5374 N.ar    1  UNL1       -0.2007
     24 C         145.3299  141.4320  164.0004 C.ar    1  UNL1        0.2210
     25 N         144.4530  142.5366  164.5112 N.ar    1  UNL1       -0.1451
     26 C         141.5802  140.1032  154.5036 C.3     1  UNL1        0.1007
     27 C         141.2688  138.6954  154.9174 C.ar    1  UNL1        0.0129
     28 C         139.9010  138.0878  155.0164 C.ar    1  UNL1        0.0176
     29 C         140.0572  136.6650  155.4650 C.ar    1  UNL1        0.0799
     30 N         141.5216  136.3933  155.6432 N.ar    1  UNL1       -0.3038
     31 C         142.2704  137.6482  155.3048 C.ar    1  UNL1        0.0772
     32 C         142.1304  135.0947  156.0827 C.ar    1  UNL1        0.0640
     33 C         141.6319  133.8010  155.5103 C.ar    1  UNL1        0.0175
     34 C         142.2406  132.5024  155.9498 C.ar    1  UNL1        0.0053
     35 C         143.3478  132.4976  156.9616 C.ar    1  UNL1        0.0715
     36 C         143.8464  133.7913  157.5340 C.ar    1  UNL1        0.0053
     37 C         143.2377  135.0899  157.0945 C.ar    1  UNL1        0.0175
     38 C         143.9566  131.1990  157.4011 C.3     1  UNL1        0.4186
     39 F         144.5652  129.9004  157.8405 F       1  UNL1       -0.1659
     40 F         145.1603  131.9354  157.9097 F       1  UNL1       -0.1659
     41 F         142.7528  130.4625  156.8924 F       1  UNL1       -0.1659
@<TRIPOS>BOND
     1     7     8    2
     2     8     9   am
     3     9     1    1
     4     1     2    1
     5     2     3    1
     6     3     4    1
     7     4    26    1
     8    26    27    1
     9    27    28   ar
    10    28    29   ar
    11    29    30   ar
    12    30    32    1
    13    32    33   ar
    14    33    34   ar
    15    34    35   ar
    16    35    38    1
    17    38    39    1
    18    38    40    1
    19    38    41    1
    20    35    36   ar
    21    36    37   ar
    22    30    31   ar
    23     4     5    1
    24     5     6    1
    25     8    10   am
    26    10    13    1
    27    13    20    1
    28    20    21    1
    29    21    22   ar
    30    22    23   ar
    31    23    24   ar
    32    24    25   ar
    33    13    14    1
    34    14    15   ar
    35    15    16   ar
    36    16    17   ar
    37    17    18   ar
    38    18    19   ar
    39     6     1    1
    40    25    21   ar
    41    19    14   ar
    42    31    27   ar
    43    37    32   ar
    44     9    11    1
    45    10    12    1
@<TRIPOS>MOLECULE
*****
 41 45 0 0 0
SMALL
GASTEIGER

@<TRIPOS>ATOM
      1 C         143.2304  142.7410  157.9812 C.3     1  UNL1        0.0758
      2 C         144.4938  141.9382  158.0774 C.3     1  UNL1        0.0370
      3 C         144.7198  140.7814  157.1498 C.3     1  UNL1        0.0741
      4 N         143.6823  140.4272  156.1260 N.3     1  UNL1       -0.2688
      5 C         142.4188  141.2299  156.0298 C.3     1  UNL1        0.0741
      6 C         142.1929  142.3868  156.9574 C.3     1  UNL1        0.0370
      7 O         141.9710  142.2872  160.6660 O.2     1  UNL1       -0.2528
      8 C         142.3747  143.6710  160.2512 C.2     1  UNL1        0.3010
      9 N         143.0044  143.8979  158.9089 N.am    1  UNL1       -0.2905
     10 N         142.1487  144.8280  161.1789 N.am    1  UNL1       -0.2848
     11 H         143.2693  144.8062  158.6366 H       1  UNL1        0.1509
     12 H         142.4136  145.7363  160.9066 H       1  UNL1        0.1513
     13 C         141.5190  144.6011  162.5212 C.3     1  UNL1        0.1200
     14 C         142.3414  144.0617  163.6538 C.ar    1  UNL1       -0.0025
     15 C         143.6317  144.7289  164.0280 C.ar    1  UNL1       -0.0026
     16 C         144.4540  144.1894  165.1606 C.ar    1  UNL1       -0.0003
     17 C         143.9861  142.9828  165.9189 C.ar    1  UNL1       -0.0000
     18 C         142.6958  142.3157  165.5448 C.ar    1  UNL1       -0.0003
     19 C         141.8734  142.8551  164.4122 C.ar    1  UNL1       -0.0026
     20 C         140.0670  144.9137  162.7310 C.3     1  UNL1        0.1533
     21 N         139.0496  143.8121  162.6930 N.ar    1  UNL1       -0.2280
     22 C         138.6346  143.0368  161.4779 C.ar    1  UNL1        0.1973
     23 N         137.5971  142.0380  161.8974 N.ar    1  UNL1       -0.2007
     24 C         137.3709  142.1960  163.3718 C.ar    1  UNL1        0.2210
     25 N         138.2686  143.2925  163.8635 N.ar    1  UNL1       -0.1451
     26 C         143.9083  139.2702  155.1984 C.3     1  UNL1        0.1007
     27 C         143.3616  137.9161  155.5412 C.ar    1  UNL1        0.0129
     28 C         141.9305  137.5975  155.8579 C.ar    1  UNL1        0.0176
     29 C         141.8344  136.1274  156.1400 C.ar    1  UNL1        0.0799
     30 N         143.2062  135.5374  155.9976 N.ar    1  UNL1       -0.3038
     31 C         144.1500  136.6430  155.6276 C.ar    1  UNL1        0.0772
     32 C         143.5702  134.0952  156.1913 C.ar    1  UNL1        0.0640
     33 C         143.2923  133.0991  155.1049 C.ar    1  UNL1        0.0175
     34 C         143.6563  131.6569  155.2986 C.ar    1  UNL1        0.0053
     35 C         144.2983  131.2109  156.5788 C.ar    1  UNL1        0.0715
     36 C         144.5762  132.2070  157.6653 C.ar    1  UNL1        0.0053
     37 C         144.2122  133.6492  157.4716 C.ar    1  UNL1        0.0175
     38 C         144.6623  129.7687  156.7725 C.3     1  UNL1        0.4186
     39 F         145.0262  128.3264  156.9663 F       1  UNL1       -0.1659
     40 F         145.2995  129.7472  155.4148 F       1  UNL1       -0.1659
     41 F         144.0250  129.7902  158.1303 F       1  UNL1       -0.1659
@<TRIPOS>BOND
     1     7     8    2
     2     8     9   am
     3     9     1    1
     4     1     2    1
     5     2     3    1
     6     3     4    1
     7     4    26    1
     8    26    27    1
     9    27    28   ar
    10    28    29   ar
    11    29    30   ar
    12    30    32    1
    13    32    33   ar
    14    33    34   ar
    15    34    35   ar
    16    35    38    1
    17    38    39    1
    18    38    40    1
    19    38    41    1
    20    35    36   ar
    21    36    37   ar
    22    30    31   ar
    23     4     5    1
    24     5     6    1
    25     8    10   am
    26    10    13    1
    27    13    20    1
    28    20    21    1
    29    21    22   ar
    30    22    23   ar
    31    23    24   ar
    32    24    25   ar
    33    13    14    1
    34    14    15   ar
    35    15    16   ar
    36    16    17   ar
    37    17    18   ar
    38    18    19   ar
    39     6     1    1
    40    25    21   ar
    41    19    14   ar
    42    31    27   ar
    43    37    32   ar
    44     9    11    1
    45    10    12    1
@<TRIPOS>MOLECULE
*****
 41 45 0 0 0
SMALL
GASTEIGER

@<TRIPOS>ATOM
      1 C         140.9263  144.3809  159.2241 C.3     1  UNL1        0.0758
      2 C         142.1439  143.5073  159.2888 C.3     1  UNL1        0.0370
      3 C         142.9791  143.4760  160.5344 C.3     1  UNL1        0.0741
      4 N         142.5967  144.3183  161.7152 N.3     1  UNL1       -0.2688
      5 C         141.3791  145.1919  161.6504 C.3     1  UNL1        0.0741
      6 C         140.5439  145.2232  160.4049 C.3     1  UNL1        0.0370
      7 O         141.6932  146.1790  156.9484 O.2     1  UNL1       -0.2528
      8 C         140.4745  145.3112  156.8407 C.2     1  UNL1        0.3010
      9 N         140.0910  144.4122  157.9785 N.am    1  UNL1       -0.2905
     10 N         139.6392  145.3425  155.5951 N.am    1  UNL1       -0.2848
     11 H         139.2911  143.8426  157.9078 H       1  UNL1        0.1509
     12 H         138.8393  144.7730  155.5244 H       1  UNL1        0.1513
     13 C         140.0227  146.2415  154.4573 C.3     1  UNL1        0.1200
     14 C         139.7495  147.7141  154.5401 C.ar    1  UNL1       -0.0025
     15 C         140.3577  148.6474  153.5356 C.ar    1  UNL1       -0.0026
     16 C         140.0845  150.1199  153.6183 C.ar    1  UNL1       -0.0003
     17 C         139.2030  150.6593  154.7056 C.ar    1  UNL1       -0.0000
     18 C         138.5948  149.7260  155.7101 C.ar    1  UNL1       -0.0003
     19 C         138.8680  148.2534  155.6274 C.ar    1  UNL1       -0.0026
     20 C         140.6794  145.6680  153.2368 C.3     1  UNL1        0.1533
     21 N         142.1386  145.3214  153.2630 N.ar    1  UNL1       -0.2280
     22 C         142.8011  144.3670  154.2117 C.ar    1  UNL1        0.1973
     23 N         144.2634  144.3241  153.8802 N.ar    1  UNL1       -0.2007
     24 C         144.5046  145.2520  152.7265 C.ar    1  UNL1        0.2210
     25 N         143.1913  145.8684  152.3451 N.ar    1  UNL1       -0.1451
     26 C         143.4320  144.2870  162.9607 C.3     1  UNL1        0.1007
     27 C         143.0389  143.4008  164.1053 C.ar    1  UNL1        0.0129
     28 C         143.8638  143.1192  165.3260 C.ar    1  UNL1        0.0176
     29 C         143.0867  142.1849  166.2052 C.ar    1  UNL1        0.0799
     30 N         141.7814  141.8889  165.5279 N.ar    1  UNL1       -0.3038
     31 C         141.7519  142.6404  164.2300 C.ar    1  UNL1        0.0772
     32 C         140.6963  140.9980  166.0557 C.ar    1  UNL1        0.0640
     33 C         140.5246  140.8209  167.5352 C.ar    1  UNL1        0.0175
     34 C         139.4395  139.9299  168.0630 C.ar    1  UNL1        0.0053
     35 C         138.5260  139.2161  167.1113 C.ar    1  UNL1        0.0715
     36 C         138.6976  139.3931  165.6317 C.ar    1  UNL1        0.0053
     37 C         139.7828  140.2841  165.1039 C.ar    1  UNL1        0.0175
     38 C         137.4408  138.3251  167.6391 C.3     1  UNL1        0.4186
     39 F         136.3556  137.4342  168.1670 F       1  UNL1       -0.1659
     40 F         137.4863  137.5203  166.3741 F       1  UNL1       -0.1659
     41 F         137.3953  139.1299  168.9042 F       1  UNL1       -0.1659
@<TRIPOS>BOND
     1     7     8    2
     2     8     9   am
     3     9     1    1
     4     1     2    1
     5     2     3    1
     6     3     4    1
     7     4    26    1
     8    26    27    1
     9    27    28   ar
    10    28    29   ar
    11    29    30   ar
    12    30    32    1
    13    32    33   ar
    14    33    34   ar
    15    34    35   ar
    16    35    38    1
    17    38    39    1
    18    38    40    1
    19    38    41    1
    20    35    36   ar
    21    36    37   ar
    22    30    31   ar
    23     4     5    1
    24     5     6    1
    25     8    10   am
    26    10    13    1
    27    13    20    1
    28    20    21    1
    29    21    22   ar
    30    22    23   ar
    31    23    24   ar
    32    24    25   ar
    33    13    14    1
    34    14    15   ar
    35    15    16   ar
    36    16    17   ar
    37    17    18   ar
    38    18    19   ar
    39     6     1    1
    40    25    21   ar
    41    19    14   ar
    42    31    27   ar
    43    37    32   ar
    44     9    11    1
    45    10    12    1
@<TRIPOS>MOLECULE
*****
 41 45 0 0 0
SMALL
GASTEIGER

@<TRIPOS>ATOM
      1 C         138.6807  142.5173  158.1099 C.3     1  UNL1        0.0758
      2 C         140.0380  142.2770  157.5184 C.3     1  UNL1        0.0370
      3 C         141.1887  141.9079  158.4070 C.3     1  UNL1        0.0741
      4 N         140.9821  141.7793  159.8871 N.3     1  UNL1       -0.2688
      5 C         139.6248  142.0197  160.4786 C.3     1  UNL1        0.0741
      6 C         138.4741  142.3887  159.5900 C.3     1  UNL1        0.0370
      7 O         136.9927  140.3687  156.8714 O.2     1  UNL1       -0.2528
      8 C         136.6860  141.8121  156.6020 C.2     1  UNL1        0.3010
      9 N         137.5299  142.8864  157.2213 N.am    1  UNL1       -0.2905
     10 N         135.5352  142.1811  155.7134 N.am    1  UNL1       -0.2848
     11 H         137.3286  143.8337  157.0445 H       1  UNL1        0.1509
     12 H         135.3338  143.1285  155.5367 H       1  UNL1        0.1513
     13 C         134.6912  141.1068  155.0942 C.3     1  UNL1        0.1200
     14 C         133.4670  140.6115  155.8054 C.ar    1  UNL1       -0.0025
     15 C         133.5838  139.5211  156.8289 C.ar    1  UNL1       -0.0026
     16 C         132.3596  139.0258  157.5401 C.ar    1  UNL1       -0.0003
     17 C         131.0185  139.6208  157.2279 C.ar    1  UNL1       -0.0000
     18 C         130.9017  140.7111  156.2045 C.ar    1  UNL1       -0.0003
     19 C         132.1259  141.2065  155.4932 C.ar    1  UNL1       -0.0026
     20 C         135.0715  140.5278  153.7637 C.3     1  UNL1        0.1533
     21 N         136.1227  139.4609  153.6829 N.ar    1  UNL1       -0.2280
     22 C         137.2604  139.4163  152.7063 C.ar    1  UNL1        0.1973
     23 N         138.0617  138.1791  152.9843 N.ar    1  UNL1       -0.2007
     24 C         137.4192  137.4590  154.1327 C.ar    1  UNL1        0.2210
     25 N         136.2209  138.2513  154.5645 N.ar    1  UNL1       -0.1451
     26 C         142.1329  141.4102  160.7757 C.3     1  UNL1        0.1007
     27 C         142.1137  141.7934  162.2258 C.ar    1  UNL1        0.0129
     28 C         142.6657  143.0596  162.8106 C.ar    1  UNL1        0.0176
     29 C         142.4323  143.0264  164.2919 C.ar    1  UNL1        0.0799
     30 N         141.7359  141.7397  164.6227 N.ar    1  UNL1       -0.3038
     31 C         141.5390  140.9776  163.3458 C.ar    1  UNL1        0.0772
     32 C         141.3110  141.2934  165.9903 C.ar    1  UNL1        0.0640
     33 C         140.0376  140.5202  166.1650 C.ar    1  UNL1        0.0175
     34 C         139.6128  140.0739  167.5326 C.ar    1  UNL1        0.0053
     35 C         140.4613  140.4007  168.7254 C.ar    1  UNL1        0.0715
     36 C         141.7348  141.1739  168.5508 C.ar    1  UNL1        0.0053
     37 C         142.1597  141.6202  167.1832 C.ar    1  UNL1        0.0175
     38 C         140.0365  139.9544  170.0930 C.3     1  UNL1        0.4186
     39 F         139.6117  139.5081  171.4606 F       1  UNL1       -0.1659
     40 F         138.7796  140.7633  169.9665 F       1  UNL1       -0.1659
     41 F         141.2934  139.1455  170.2195 F       1  UNL1       -0.1659
@<TRIPOS>BOND
     1     7     8    2
     2     8     9   am
     3     9     1    1
     4     1     2    1
     5     2     3    1
     6     3     4    1
     7     4    26    1
     8    26    27    1
     9    27    28   ar
    10    28    29   ar
    11    29    30   ar
    12    30    32    1
    13    32    33   ar
    14    33    34   ar
    15    34    35   ar
    16    35    38    1
    17    38    39    1
    18    38    40    1
    19    38    41    1
    20    35    36   ar
    21    36    37   ar
    22    30    31   ar
    23     4     5    1
    24     5     6    1
    25     8    10   am
    26    10    13    1
    27    13    20    1
    28    20    21    1
    29    21    22   ar
    30    22    23   ar
    31    23    24   ar
    32    24    25   ar
    33    13    14    1
    34    14    15   ar
    35    15    16   ar
    36    16    17   ar
    37    17    18   ar
    38    18    19   ar
    39     6     1    1
    40    25    21   ar
    41    19    14   ar
    42    31    27   ar
    43    37    32   ar
    44     9    11    1
    45    10    12    1
@<TRIPOS>MOLECULE
*****
 41 45 0 0 0
SMALL
GASTEIGER

@<TRIPOS>ATOM
      1 C         140.9584  143.5037  157.8643 C.3     1  UNL1        0.0758
      2 C         141.4780  142.1668  157.4254 C.3     1  UNL1        0.0370
      3 C         140.7055  141.3515  156.4313 C.3     1  UNL1        0.0741
      4 N         139.4133  141.8730  155.8761 N.3     1  UNL1       -0.2688
      5 C         138.8937  143.2099  156.3149 C.3     1  UNL1        0.0741
      6 C         139.6662  144.0252  157.3090 C.3     1  UNL1        0.0370
      7 O         140.9209  142.7567  160.7696 O.2     1  UNL1       -0.2528
      8 C         141.7122  143.9457  160.3111 C.2     1  UNL1        0.3010
      9 N         141.7309  144.3192  158.8585 N.am    1  UNL1       -0.2905
     10 N         142.4847  144.7611  161.3052 N.am    1  UNL1       -0.2848
     11 H         142.2502  145.0996  158.5575 H       1  UNL1        0.1509
     12 H         143.0040  145.5415  161.0043 H       1  UNL1        0.1513
     13 C         142.4660  144.3876  162.7578 C.3     1  UNL1        0.1200
     14 C         143.3496  143.2844  163.2599 C.ar    1  UNL1       -0.0025
     15 C         142.9157  142.4484  164.4274 C.ar    1  UNL1       -0.0026
     16 C         143.7993  141.3453  164.9296 C.ar    1  UNL1       -0.0003
     17 C         145.1169  141.0781  164.2643 C.ar    1  UNL1       -0.0000
     18 C         145.5508  141.9140  163.0969 C.ar    1  UNL1       -0.0003
     19 C         144.6672  143.0172  162.5947 C.ar    1  UNL1       -0.0026
     20 C         141.5636  145.1172  163.7083 C.3     1  UNL1        0.1533
     21 N         140.1178  144.7322  163.8147 N.ar    1  UNL1       -0.2280
     22 C         139.4460  144.1547  165.0252 C.ar    1  UNL1        0.1973
     23 N         138.0029  143.9228  164.6880 N.ar    1  UNL1       -0.2007
     24 C         137.7828  144.3569  163.2691 C.ar    1  UNL1        0.2210
     25 N         139.0898  144.8571  162.7294 N.ar    1  UNL1       -0.1451
     26 C         138.6408  141.0575  154.8819 C.3     1  UNL1        0.1007
     27 C         137.1450  141.1576  154.8304 C.ar    1  UNL1        0.0129
     28 C         136.3469  141.9214  153.8157 C.ar    1  UNL1        0.0176
     29 C         134.8934  141.7474  154.1428 C.ar    1  UNL1        0.0799
     30 N         134.7931  140.8761  155.3597 N.ar    1  UNL1       -0.3038
     31 C         136.1847  140.5116  155.7847 C.ar    1  UNL1        0.0772
     32 C         133.5241  140.4450  156.0333 C.ar    1  UNL1        0.0640
     33 C         132.2107  141.0261  155.6009 C.ar    1  UNL1        0.0175
     34 C         130.9417  140.5950  156.2745 C.ar    1  UNL1        0.0053
     35 C         130.9861  139.5828  157.3805 C.ar    1  UNL1        0.0715
     36 C         132.2996  139.0016  157.8129 C.ar    1  UNL1        0.0053
     37 C         133.5686  139.4327  157.1393 C.ar    1  UNL1        0.0175
     38 C         129.7171  139.1516  158.0540 C.3     1  UNL1        0.4186
     39 F         128.4482  138.7205  158.7277 F       1  UNL1       -0.1659
     40 F         128.9722  140.2483  157.3524 F       1  UNL1       -0.1659
     41 F         130.4621  138.0549  158.7558 F       1  UNL1       -0.1659
@<TRIPOS>BOND
     1     7     8    2
     2     8     9   am
     3     9     1    1
     4     1     2    1
     5     2     3    1
     6     3     4    1
     7     4    26    1
     8    26    27    1
     9    27    28   ar
    10    28    29   ar
    11    29    30   ar
    12    30    32    1
    13    32    33   ar
    14    33    34   ar
    15    34    35   ar
    16    35    38    1
    17    38    39    1
    18    38    40    1
    19    38    41    1
    20    35    36   ar
    21    36    37   ar
    22    30    31   ar
    23     4     5    1
    24     5     6    1
    25     8    10   am
    26    10    13    1
    27    13    20    1
    28    20    21    1
    29    21    22   ar
    30    22    23   ar
    31    23    24   ar
    32    24    25   ar
    33    13    14    1
    34    14    15   ar
    35    15    16   ar
    36    16    17   ar
    37    17    18   ar
    38    18    19   ar
    39     6     1    1
    40    25    21   ar
    41    19    14   ar
    42    31    27   ar
    43    37    32   ar
    44     9    11    1
    45    10    12    1
