@<TRIPOS>MOLECULE
*****
 21 21 0 0 0
SMALL
GASTEIGER

@<TRIPOS>ATOM
      1 C         140.1855  141.3942  170.1231 C.3     1  UNL1        0.1498
      2 C         139.4375  140.5440  169.1395 C.1     1  UNL1       -0.0727
      3 C         138.6895  139.6937  168.1558 C.1     1  UNL1       -0.0849
      4 C         137.9415  138.8436  167.1721 C.3     1  UNL1        0.1023
      5 C         138.3241  138.8616  165.7219 C.ar    1  UNL1       -0.0091
      6 C         138.9300  137.6432  165.0908 C.ar    1  UNL1       -0.0024
      7 C         139.3126  137.6613  163.6405 C.ar    1  UNL1        0.0111
      8 C         139.0893  138.8978  162.8213 C.ar    1  UNL1        0.0577
      9 CL        139.4719  138.9159  161.3710 Cl      1  UNL1       -0.0822
     10 C         138.4833  140.1162  163.4524 C.ar    1  UNL1        0.0111
     11 C         138.1007  140.0981  164.9026 C.ar    1  UNL1       -0.0024
     12 N         141.6836  141.3389  170.1754 N.3     1  UNL1       -0.2618
     13 C         142.4857  142.5995  170.0426 C.3     1  UNL1        0.0730
     14 C         143.9662  142.5258  169.8134 C.3     1  UNL1        0.0188
     15 C         142.3796  140.0231  170.3604 C.3     1  UNL1        0.0730
     16 C         142.4969  139.0684  169.2094 C.3     1  UNL1        0.0174
     17 C         142.9144  139.5697  167.8586 C.3     1  UNL1        0.0014
     18 C         142.0341  139.3357  166.6669 C.3     1  UNL1        0.0000
     19 C         141.5729  140.4961  165.8358 C.3     1  UNL1        0.0000
     20 C         140.4114  142.7569  166.3741 C.3     1  UNL1        0.0000
     21 C         141.6340  141.8880  166.3916 C.3     1  UNL1        0.0000
@<TRIPOS>BOND
     1    20    21    1
     2    21    19    1
     3    19    18    1
     4    18    17    1
     5    17    16    1
     6    16    15    1
     7    15    12    1
     8    12    13    1
     9    13    14    1
    10    12     1    1
    11     1     2    1
    12     2     3    3
    13     3     4    1
    14     4     5    1
    15     5     6   ar
    16     6     7   ar
    17     7     8   ar
    18     8     9    1
    19     8    10   ar
    20    10    11   ar
    21    11     5   ar
@<TRIPOS>MOLECULE
*****
 21 21 0 0 0
SMALL
GASTEIGER

@<TRIPOS>ATOM
      1 C         139.4175  140.3615  170.0413 C.3     1  UNL1        0.1498
      2 C         139.0576  139.9335  168.6495 C.1     1  UNL1       -0.0727
      3 C         138.6977  139.5054  167.2576 C.1     1  UNL1       -0.0849
      4 C         138.3378  139.0773  165.8658 C.3     1  UNL1        0.1023
      5 C         139.4188  138.7812  164.8690 C.ar    1  UNL1       -0.0091
      6 C         139.9061  139.8605  163.9484 C.ar    1  UNL1       -0.0024
      7 C         140.9872  139.5645  162.9516 C.ar    1  UNL1        0.0111
      8 C         141.5810  138.1892  162.8754 C.ar    1  UNL1        0.0577
      9 CL        142.6620  137.8931  161.8786 Cl      1  UNL1       -0.0822
     10 C         141.0937  137.1099  163.7960 C.ar    1  UNL1        0.0111
     11 C         140.0126  137.4059  164.7928 C.ar    1  UNL1       -0.0024
     12 N         140.6692  141.1520  170.2828 N.3     1  UNL1       -0.2618
     13 C         140.5793  142.5852  170.7163 C.3     1  UNL1        0.0730
     14 C         140.4594  143.6730  169.6904 C.3     1  UNL1        0.0188
     15 C         142.0109  140.5093  170.0908 C.3     1  UNL1        0.0730
     16 C         142.8816  140.9202  168.9406 C.3     1  UNL1        0.0174
     17 C         142.4353  140.6613  167.5321 C.3     1  UNL1        0.0014
     18 C         142.4842  139.2700  166.9737 C.3     1  UNL1        0.0000
     19 C         143.4671  138.9297  165.8929 C.3     1  UNL1        0.0000
     20 C         145.0439  139.6839  163.9707 C.3     1  UNL1        0.0000
     21 C         143.9933  140.0069  164.9914 C.3     1  UNL1        0.0000
@<TRIPOS>BOND
     1    20    21    1
     2    21    19    1
     3    19    18    1
     4    18    17    1
     5    17    16    1
     6    16    15    1
     7    15    12    1
     8    12    13    1
     9    13    14    1
    10    12     1    1
    11     1     2    1
    12     2     3    3
    13     3     4    1
    14     4     5    1
    15     5     6   ar
    16     6     7   ar
    17     7     8   ar
    18     8     9    1
    19     8    10   ar
    20    10    11   ar
    21    11     5   ar
@<TRIPOS>MOLECULE
*****
 21 21 0 0 0
SMALL
GASTEIGER

@<TRIPOS>ATOM
      1 C         137.3494  141.4477  163.1914 C.3     1  UNL1        0.1498
      2 C         137.9379  140.8231  164.4216 C.1     1  UNL1       -0.0727
      3 C         138.5265  140.1985  165.6519 C.1     1  UNL1       -0.0849
      4 C         139.1151  139.5739  166.8821 C.3     1  UNL1        0.1023
      5 C         140.2795  140.2235  167.5693 C.ar    1  UNL1       -0.0091
      6 C         140.0677  141.4510  168.4049 C.ar    1  UNL1       -0.0024
      7 C         141.2321  142.1005  169.0921 C.ar    1  UNL1        0.0111
      8 C         142.6083  141.5226  168.9437 C.ar    1  UNL1        0.0577
      9 CL        143.7727  142.1721  169.6308 Cl      1  UNL1       -0.0822
     10 C         142.8201  140.2951  168.1080 C.ar    1  UNL1        0.0111
     11 C         141.6556  139.6455  167.4208 C.ar    1  UNL1       -0.0024
     12 N         138.0758  142.5592  162.4937 N.3     1  UNL1       -0.2618
     13 C         139.0610  142.2453  161.4069 C.3     1  UNL1        0.0730
     14 C         138.7530  142.6143  159.9860 C.3     1  UNL1        0.0188
     15 C         137.8172  143.9846  162.8827 C.3     1  UNL1        0.0730
     16 C         138.8064  144.7201  163.7374 C.3     1  UNL1        0.0174
     17 C         138.8446  144.4785  165.2173 C.3     1  UNL1        0.0014
     18 C         139.9470  143.6550  165.8146 C.3     1  UNL1        0.0000
     19 C         140.9775  143.0240  164.9260 C.3     1  UNL1        0.0000
     20 C         143.2587  141.7859  164.8106 C.3     1  UNL1        0.0000
     21 C         142.3819  142.8395  165.4198 C.3     1  UNL1        0.0000
@<TRIPOS>BOND
     1    20    21    1
     2    21    19    1
     3    19    18    1
     4    18    17    1
     5    17    16    1
     6    16    15    1
     7    15    12    1
     8    12    13    1
     9    13    14    1
    10    12     1    1
    11     1     2    1
    12     2     3    3
    13     3     4    1
    14     4     5    1
    15     5     6   ar
    16     6     7   ar
    17     7     8   ar
    18     8     9    1
    19     8    10   ar
    20    10    11   ar
    21    11     5   ar
@<TRIPOS>MOLECULE
*****
 21 21 0 0 0
SMALL
GASTEIGER

@<TRIPOS>ATOM
      1 C         141.3671  137.4130  163.4186 C.3     1  UNL1        0.1498
      2 C         141.9252  137.9928  164.6844 C.1     1  UNL1       -0.0727
      3 C         142.4833  138.5727  165.9502 C.1     1  UNL1       -0.0849
      4 C         143.0414  139.1525  167.2160 C.3     1  UNL1        0.1023
      5 C         142.2832  140.2178  167.9511 C.ar    1  UNL1       -0.0091
      6 C         140.8502  139.9912  168.3319 C.ar    1  UNL1       -0.0024
      7 C         140.0920  141.0565  169.0670 C.ar    1  UNL1        0.0111
      8 C         140.7669  142.3484  169.4212 C.ar    1  UNL1        0.0577
      9 CL        140.0087  143.4137  170.1563 Cl      1  UNL1       -0.0822
     10 C         142.1999  142.5750  169.0404 C.ar    1  UNL1        0.0111
     11 C         142.9580  141.5097  168.3053 C.ar    1  UNL1       -0.0024
     12 N         140.0458  137.8909  162.8934 N.3     1  UNL1       -0.2618
     13 C         139.9710  138.5711  161.5585 C.3     1  UNL1        0.0730
     14 C         138.6396  138.7981  160.9061 C.3     1  UNL1        0.0188
     15 C         138.7994  137.6887  163.7030 C.3     1  UNL1        0.0730
     16 C         138.7619  138.1139  165.1411 C.3     1  UNL1        0.0174
     17 C         138.4656  139.5414  165.4936 C.3     1  UNL1        0.0014
     18 C         139.2625  140.6489  164.8703 C.3     1  UNL1        0.0000
     19 C         139.3823  141.9712  165.5681 C.3     1  UNL1        0.0000
     20 C         141.8583  142.1542  164.8026 C.3     1  UNL1        0.0000
     21 C         140.6931  142.7005  165.5731 C.3     1  UNL1        0.0000
@<TRIPOS>BOND
     1    20    21    1
     2    21    19    1
     3    19    18    1
     4    18    17    1
     5    17    16    1
     6    16    15    1
     7    15    12    1
     8    12    13    1
     9    13    14    1
    10    12     1    1
    11     1     2    1
    12     2     3    3
    13     3     4    1
    14     4     5    1
    15     5     6   ar
    16     6     7   ar
    17     7     8   ar
    18     8     9    1
    19     8    10   ar
    20    10    11   ar
    21    11     5   ar
@<TRIPOS>MOLECULE
*****
 21 21 0 0 0
SMALL
GASTEIGER

@<TRIPOS>ATOM
      1 C         142.6208  140.4990  169.6876 C.3     1  UNL1        0.1498
      2 C         142.7295  139.7835  168.3737 C.1     1  UNL1       -0.0727
      3 C         142.8383  139.0680  167.0598 C.1     1  UNL1       -0.0849
      4 C         142.9470  138.3525  165.7460 C.3     1  UNL1        0.1023
      5 C         141.7474  138.2380  164.8528 C.ar    1  UNL1       -0.0091
      6 C         140.3788  138.5268  165.3944 C.ar    1  UNL1       -0.0024
      7 C         139.1792  138.4122  164.5012 C.ar    1  UNL1        0.0111
      8 C         139.3482  138.0089  163.0664 C.ar    1  UNL1        0.0577
      9 CL        138.1485  137.8943  162.1732 Cl      1  UNL1       -0.0822
     10 C         140.7168  137.7201  162.5248 C.ar    1  UNL1        0.0111
     11 C         141.9164  137.8346  163.4180 C.ar    1  UNL1       -0.0024
     12 N         141.3377  141.1760  170.0689 N.3     1  UNL1       -0.2618
     13 C         140.2237  140.3807  170.6826 C.3     1  UNL1        0.0730
     14 C         138.9184  140.2355  169.9579 C.3     1  UNL1        0.0188
     15 C         141.1687  142.6482  169.8367 C.3     1  UNL1        0.0730
     16 C         140.5435  143.1400  168.5650 C.3     1  UNL1        0.0174
     17 C         140.4967  142.2493  167.3589 C.3     1  UNL1        0.0014
     18 C         140.9217  142.7764  166.0204 C.3     1  UNL1        0.0000
     19 C         142.1161  142.1898  165.3281 C.3     1  UNL1        0.0000
     20 C         140.7133  141.5536  163.2359 C.3     1  UNL1        0.0000
     21 C         142.0416  141.8393  163.8716 C.3     1  UNL1        0.0000
@<TRIPOS>BOND
     1    20    21    1
     2    21    19    1
     3    19    18    1
     4    18    17    1
     5    17    16    1
     6    16    15    1
     7    15    12    1
     8    12    13    1
     9    13    14    1
    10    12     1    1
    11     1     2    1
    12     2     3    3
    13     3     4    1
    14     4     5    1
    15     5     6   ar
    16     6     7   ar
    17     7     8   ar
    18     8     9    1
    19     8    10   ar
    20    10    11   ar
    21    11     5   ar
@<TRIPOS>MOLECULE
*****
 21 21 0 0 0
SMALL
GASTEIGER

@<TRIPOS>ATOM
      1 C         140.9802  136.9820  163.3043 C.3     1  UNL1        0.1498
      2 C         141.6284  137.7421  164.4232 C.1     1  UNL1       -0.0727
      3 C         142.2766  138.5023  165.5422 C.1     1  UNL1       -0.0849
      4 C         142.9247  139.2625  166.6611 C.3     1  UNL1        0.1023
      5 C         142.0861  140.0877  167.5916 C.ar    1  UNL1       -0.0091
      6 C         141.5502  139.4819  168.8549 C.ar    1  UNL1       -0.0024
      7 C         140.7116  140.3071  169.7854 C.ar    1  UNL1        0.0111
      8 C         140.4090  141.7380  169.4527 C.ar    1  UNL1        0.0577
      9 CL        139.5705  142.5632  170.3833 Cl      1  UNL1       -0.0822
     10 C         140.9450  142.3438  168.1895 C.ar    1  UNL1        0.0111
     11 C         141.7835  141.5186  167.2590 C.ar    1  UNL1       -0.0024
     12 N         140.5417  137.7021  162.0636 N.3     1  UNL1       -0.2618
     13 C         141.5514  138.0860  161.0228 C.3     1  UNL1        0.0730
     14 C         142.4035  139.3050  161.2182 C.3     1  UNL1        0.0188
     15 C         139.0936  138.0382  161.8638 C.3     1  UNL1        0.0730
     16 C         138.4923  139.2156  162.5724 C.3     1  UNL1        0.0174
     17 C         139.3419  140.4073  162.9009 C.3     1  UNL1        0.0014
     18 C         139.6469  140.7395  164.3315 C.3     1  UNL1        0.0000
     19 C         138.5793  140.6054  165.3766 C.3     1  UNL1        0.0000
     20 C         138.2339  138.1581  166.1777 C.3     1  UNL1        0.0000
     21 C         138.7016  139.5583  166.4437 C.3     1  UNL1        0.0000
@<TRIPOS>BOND
     1    20    21    1
     2    21    19    1
     3    19    18    1
     4    18    17    1
     5    17    16    1
     6    16    15    1
     7    15    12    1
     8    12    13    1
     9    13    14    1
    10    12     1    1
    11     1     2    1
    12     2     3    3
    13     3     4    1
    14     4     5    1
    15     5     6   ar
    16     6     7   ar
    17     7     8   ar
    18     8     9    1
    19     8    10   ar
    20    10    11   ar
    21    11     5   ar
@<TRIPOS>MOLECULE
*****
 21 21 0 0 0
SMALL
GASTEIGER

@<TRIPOS>ATOM
      1 C         141.5054  145.2614  163.5298 C.3     1  UNL1        0.1498
      2 C         142.0083  144.0985  164.3328 C.1     1  UNL1       -0.0727
      3 C         142.5112  142.9356  165.1359 C.1     1  UNL1       -0.0849
      4 C         143.0141  141.7728  165.9389 C.3     1  UNL1        0.1023
      5 C         142.2597  141.3173  167.1528 C.ar    1  UNL1       -0.0091
      6 C         142.6424  140.0390  167.8378 C.ar    1  UNL1       -0.0024
      7 C         141.8881  139.5835  169.0516 C.ar    1  UNL1        0.0111
      8 C         140.7509  140.4064  169.5805 C.ar    1  UNL1        0.0577
      9 CL        139.9965  139.9509  170.7943 Cl      1  UNL1       -0.0822
     10 C         140.3681  141.6847  168.8955 C.ar    1  UNL1        0.0111
     11 C         141.1225  142.1402  167.6816 C.ar    1  UNL1       -0.0024
     12 N         140.0572  145.3377  163.1464 N.3     1  UNL1       -0.2618
     13 C         139.6649  145.8712  161.8004 C.3     1  UNL1        0.0730
     14 C         140.4666  145.5063  160.5862 C.3     1  UNL1        0.0188
     15 C         139.0014  144.8806  164.1088 C.3     1  UNL1        0.0730
     16 C         137.7994  144.1373  163.6061 C.3     1  UNL1        0.0174
     17 C         137.7908  142.6373  163.6070 C.3     1  UNL1        0.0014
     18 C         138.3315  141.8849  164.7867 C.3     1  UNL1        0.0000
     19 C         138.9264  140.5210  164.5977 C.3     1  UNL1        0.0000
     20 C         138.0342  138.9977  166.5039 C.3     1  UNL1        0.0000
     21 C         139.1827  139.6432  165.7868 C.3     1  UNL1        0.0000
@<TRIPOS>BOND
     1    20    21    1
     2    21    19    1
     3    19    18    1
     4    18    17    1
     5    17    16    1
     6    16    15    1
     7    15    12    1
     8    12    13    1
     9    13    14    1
    10    12     1    1
    11     1     2    1
    12     2     3    3
    13     3     4    1
    14     4     5    1
    15     5     6   ar
    16     6     7   ar
    17     7     8   ar
    18     8     9    1
    19     8    10   ar
    20    10    11   ar
    21    11     5   ar
@<TRIPOS>MOLECULE
*****
 21 21 0 0 0
SMALL
GASTEIGER

@<TRIPOS>ATOM
      1 C         138.6096  138.5635  163.5349 C.3     1  UNL1        0.1498
      2 C         138.7416  138.9585  164.9759 C.1     1  UNL1       -0.0727
      3 C         138.8736  139.3535  166.4170 C.1     1  UNL1       -0.0849
      4 C         139.0056  139.7485  167.8580 C.3     1  UNL1        0.1023
      5 C         140.2546  140.4261  168.3385 C.ar    1  UNL1       -0.0091
      6 C         141.5713  139.7115  168.2651 C.ar    1  UNL1       -0.0024
      7 C         142.8203  140.3891  168.7457 C.ar    1  UNL1        0.0111
      8 C         142.7525  141.7814  169.2996 C.ar    1  UNL1        0.0577
      9 CL        144.0014  142.4590  169.7802 Cl      1  UNL1       -0.0822
     10 C         141.4357  142.4960  169.3730 C.ar    1  UNL1        0.0111
     11 C         140.1868  141.8184  168.8925 C.ar    1  UNL1       -0.0024
     12 N         139.7898  137.9995  162.8007 N.3     1  UNL1       -0.2618
     13 C         139.8741  138.1242  161.3082 C.3     1  UNL1        0.0730
     14 C         140.0485  139.4737  160.6770 C.3     1  UNL1        0.0188
     15 C         140.8856  137.3108  163.5589 C.3     1  UNL1        0.0730
     16 C         142.2254  137.9693  163.7044 C.3     1  UNL1        0.0174
     17 C         142.3835  139.1564  164.6077 C.3     1  UNL1        0.0014
     18 C         142.0607  140.5314  164.1027 C.3     1  UNL1        0.0000
     19 C         141.6175  141.5973  165.0605 C.3     1  UNL1        0.0000
     20 C         139.8863  143.3949  165.7826 C.3     1  UNL1        0.0000
     21 C         140.3301  142.3299  164.8241 C.3     1  UNL1        0.0000
@<TRIPOS>BOND
     1    20    21    1
     2    21    19    1
     3    19    18    1
     4    18    17    1
     5    17    16    1
     6    16    15    1
     7    15    12    1
     8    12    13    1
     9    13    14    1
    10    12     1    1
    11     1     2    1
    12     2     3    3
    13     3     4    1
    14     4     5    1
    15     5     6   ar
    16     6     7   ar
    17     7     8   ar
    18     8     9    1
    19     8    10   ar
    20    10    11   ar
    21    11     5   ar
@<TRIPOS>MOLECULE
*****
 21 21 0 0 0
SMALL
GASTEIGER

@<TRIPOS>ATOM
      1 C         142.3578  138.1812  163.2844 C.3     1  UNL1        0.1498
      2 C         142.5271  138.5036  164.7395 C.1     1  UNL1       -0.0727
      3 C         142.6964  138.8260  166.1947 C.1     1  UNL1       -0.0849
      4 C         142.8657  139.1483  167.6498 C.3     1  UNL1        0.1023
      5 C         142.2670  140.4022  168.2148 C.ar    1  UNL1       -0.0091
      6 C         143.1064  141.3249  169.0479 C.ar    1  UNL1       -0.0024
      7 C         142.5077  142.5788  169.6129 C.ar    1  UNL1        0.0111
      8 C         141.0695  142.9100  169.3449 C.ar    1  UNL1        0.0577
      9 CL        140.4708  144.1639  169.9099 Cl      1  UNL1       -0.0822
     10 C         140.2301  141.9874  168.5118 C.ar    1  UNL1        0.0111
     11 C         140.8288  140.7335  167.9468 C.ar    1  UNL1       -0.0024
     12 N         141.1097  138.5978  162.5642 N.3     1  UNL1       -0.2618
     13 C         139.8680  137.7630  162.6710 C.3     1  UNL1        0.0730
     14 C         138.9768  137.8942  163.8704 C.3     1  UNL1        0.0188
     15 C         141.1032  139.8493  161.7373 C.3     1  UNL1        0.0730
     16 C         141.5292  141.1525  162.3456 C.3     1  UNL1        0.0174
     17 C         140.8012  141.6966  163.5390 C.3     1  UNL1        0.0014
     18 C         141.5698  142.3195  164.6666 C.3     1  UNL1        0.0000
     19 C         143.0554  142.1322  164.7551 C.3     1  UNL1        0.0000
     20 C         144.6681  144.0216  165.5162 C.3     1  UNL1        0.0000
     21 C         143.8344  142.8171  165.8387 C.3     1  UNL1        0.0000
@<TRIPOS>BOND
     1    20    21    1
     2    21    19    1
     3    19    18    1
     4    18    17    1
     5    17    16    1
     6    16    15    1
     7    15    12    1
     8    12    13    1
     9    13    14    1
    10    12     1    1
    11     1     2    1
    12     2     3    3
    13     3     4    1
    14     4     5    1
    15     5     6   ar
    16     6     7   ar
    17     7     8   ar
    18     8     9    1
    19     8    10   ar
    20    10    11   ar
    21    11     5   ar
