@<TRIPOS>MOLECULE
*****
 31 34 0 0 0
SMALL
GASTEIGER

@<TRIPOS>ATOM
      1 C         139.6036  141.6428  166.0472 C.3     1  UNL1        0.0684
      2 N         136.9144  137.4499  167.5264 N.pl3   1  UNL1       -0.3426
      3 C         137.9029  138.1006  166.6048 C.ar    1  UNL1        0.1250
      4 C         138.5353  137.3057  165.5011 C.ar    1  UNL1        0.0339
      5 C         139.5239  137.9564  164.5795 C.ar    1  UNL1        0.0041
      6 C         139.8800  139.4020  164.7615 C.ar    1  UNL1        0.0152
      7 C         139.2475  140.1970  165.8651 C.ar    1  UNL1        0.0644
      8 N         138.2590  139.5463  166.7868 N.ar    1  UNL1       -0.2351
      9 H         136.6807  136.5010  167.4069 H       1  UNL1        0.1437
     10 H         136.4993  137.9717  168.2507 H       1  UNL1        0.1437
     11 C         139.2720  142.6376  164.9747 C.ar    1  UNL1        0.0026
     12 C         140.2496  143.7214  164.6288 C.ar    1  UNL1       -0.0008
     13 C         139.9180  144.7163  163.5563 C.ar    1  UNL1        0.0204
     14 C         138.6088  144.6273  162.8296 C.ar    1  UNL1        0.0989
     15 N         137.6311  143.5435  163.1755 N.ar    1  UNL1       -0.2426
     16 C         137.9627  142.5486  164.2480 C.ar    1  UNL1        0.0949
     17 C         140.2913  142.0936  167.3017 C.3     1  UNL1        0.0382
     18 C         140.9583  141.0890  168.1939 C.ar    1  UNL1       -0.0038
     19 C         140.2832  140.6425  169.4568 C.ar    1  UNL1       -0.0012
     20 C         140.9501  139.6379  170.3490 C.ar    1  UNL1        0.0204
     21 C         142.2921  139.0799  169.9783 C.ar    1  UNL1        0.0988
     22 N         142.9672  139.5263  168.7154 N.ar    1  UNL1       -0.2442
     23 C         142.3003  140.5309  167.8232 C.ar    1  UNL1        0.0774
     24 C         142.9754  140.9773  166.5603 C.ar    1  UNL1        0.0190
     25 C         143.3137  142.4252  166.3622 C.ar    1  UNL1        0.0129
     26 C         143.9888  142.8716  165.0993 C.ar    1  UNL1        0.0586
     27 CL        144.3271  144.3195  164.9012 Cl      1  UNL1       -0.0822
     28 C         144.3256  141.8703  164.0345 C.ar    1  UNL1        0.0228
     29 C         143.9873  140.4224  164.2326 C.ar    1  UNL1        0.0586
     30 CL        144.3241  139.4210  163.1678 Cl      1  UNL1       -0.0822
     31 C         143.3122  139.9760  165.4955 C.ar    1  UNL1        0.0129
@<TRIPOS>BOND
     1     2     3    1
     2     3     4   ar
     3     4     5   ar
     4     5     6   ar
     5     6     7   ar
     6     7     1    1
     7     1    17    1
     8    17    18    1
     9    18    19   ar
    10    19    20   ar
    11    20    21   ar
    12    21    22   ar
    13    22    23   ar
    14    23    24    1
    15    24    25   ar
    16    25    26   ar
    17    26    27    1
    18    26    28   ar
    19    28    29   ar
    20    29    30    1
    21    29    31   ar
    22     1    11    1
    23    11    12   ar
    24    12    13   ar
    25    13    14   ar
    26    14    15   ar
    27    15    16   ar
    28     7     8   ar
    29     8     3   ar
    30    23    18   ar
    31    31    24   ar
    32    16    11   ar
    33     2     9    1
    34     2    10    1
@<TRIPOS>MOLECULE
*****
 31 34 0 0 0
SMALL
GASTEIGER

@<TRIPOS>ATOM
      1 C         139.7088  141.8167  165.9675 C.3     1  UNL1        0.0684
      2 N         141.1571  145.8852  163.0778 N.pl3   1  UNL1       -0.3426
      3 C         140.1192  144.8777  163.4751 C.ar    1  UNL1        0.1250
      4 C         138.7676  144.8971  162.8250 C.ar    1  UNL1        0.0339
      5 C         137.7297  143.8896  163.2223 C.ar    1  UNL1        0.0041
      6 C         138.0434  142.8629  164.2698 C.ar    1  UNL1        0.0152
      7 C         139.3950  142.8435  164.9200 C.ar    1  UNL1        0.0644
      8 N         140.4329  143.8510  164.5226 N.ar    1  UNL1       -0.2351
      9 H         140.9512  146.5591  162.3903 H       1  UNL1        0.1437
     10 H         142.0442  145.8725  163.5045 H       1  UNL1        0.1437
     11 C         139.3858  140.3726  165.7226 C.ar    1  UNL1        0.0026
     12 C         138.3556  139.6811  166.5656 C.ar    1  UNL1       -0.0008
     13 C         138.0326  138.2369  166.3207 C.ar    1  UNL1        0.0204
     14 C         138.7397  137.4842  165.2329 C.ar    1  UNL1        0.0989
     15 N         139.7699  138.1757  164.3898 N.ar    1  UNL1       -0.2426
     16 C         140.0929  139.6199  164.6347 C.ar    1  UNL1        0.0949
     17 C         140.3456  142.2341  167.2599 C.3     1  UNL1        0.0382
     18 C         140.9656  141.2045  168.1574 C.ar    1  UNL1       -0.0038
     19 C         140.2468  140.7591  169.3964 C.ar    1  UNL1       -0.0012
     20 C         140.8668  139.7296  170.2939 C.ar    1  UNL1        0.0204
     21 C         142.2055  139.1454  169.9525 C.ar    1  UNL1        0.0988
     22 N         142.9243  139.5909  168.7136 N.ar    1  UNL1       -0.2442
     23 C         142.3043  140.6204  167.8161 C.ar    1  UNL1        0.0774
     24 C         143.0231  141.0658  166.5771 C.ar    1  UNL1        0.0190
     25 C         143.3437  142.5174  166.3769 C.ar    1  UNL1        0.0129
     26 C         144.0624  142.9628  165.1380 C.ar    1  UNL1        0.0586
     27 CL        144.3830  144.4145  164.9378 Cl      1  UNL1       -0.0822
     28 C         144.4606  141.9567  164.0992 C.ar    1  UNL1        0.0228
     29 C         144.1401  140.5051  164.2994 C.ar    1  UNL1        0.0586
     30 CL        144.5383  139.4989  163.2607 Cl      1  UNL1       -0.0822
     31 C         143.4213  140.0597  165.5384 C.ar    1  UNL1        0.0129
@<TRIPOS>BOND
     1     2     3    1
     2     3     4   ar
     3     4     5   ar
     4     5     6   ar
     5     6     7   ar
     6     7     1    1
     7     1    17    1
     8    17    18    1
     9    18    19   ar
    10    19    20   ar
    11    20    21   ar
    12    21    22   ar
    13    22    23   ar
    14    23    24    1
    15    24    25   ar
    16    25    26   ar
    17    26    27    1
    18    26    28   ar
    19    28    29   ar
    20    29    30    1
    21    29    31   ar
    22     1    11    1
    23    11    12   ar
    24    12    13   ar
    25    13    14   ar
    26    14    15   ar
    27    15    16   ar
    28     7     8   ar
    29     8     3   ar
    30    23    18   ar
    31    31    24   ar
    32    16    11   ar
    33     2     9    1
    34     2    10    1
@<TRIPOS>MOLECULE
*****
 31 34 0 0 0
SMALL
GASTEIGER

@<TRIPOS>ATOM
      1 C         141.5141  142.4597  166.0705 C.3     1  UNL1        0.0684
      2 N         144.6082  142.8238  170.2292 N.pl3   1  UNL1       -0.3426
      3 C         143.6034  142.0578  169.4207 C.ar    1  UNL1        0.1250
      4 C         143.1408  140.7080  169.8831 C.ar    1  UNL1        0.0339
      5 C         142.1359  139.9420  169.0746 C.ar    1  UNL1        0.0041
      6 C         141.5937  140.5259  167.8038 C.ar    1  UNL1        0.0152
      7 C         142.0563  141.8757  167.3414 C.ar    1  UNL1        0.0644
      8 N         143.0611  142.6417  168.1499 N.ar    1  UNL1       -0.2351
      9 H         144.9641  142.4406  171.0633 H       1  UNL1        0.1437
     10 H         144.9118  143.7098  169.9257 H       1  UNL1        0.1437
     11 C         142.4388  142.7573  164.9276 C.ar    1  UNL1        0.0026
     12 C         142.8541  144.1712  164.6475 C.ar    1  UNL1       -0.0008
     13 C         143.7788  144.4688  163.5045 C.ar    1  UNL1        0.0204
     14 C         144.2882  143.3526  162.6417 C.ar    1  UNL1        0.0989
     15 N         143.8729  141.9386  162.9217 N.ar    1  UNL1       -0.2426
     16 C         142.9482  141.6410  164.0647 C.ar    1  UNL1        0.0949
     17 C         140.0473  142.7460  165.9427 C.3     1  UNL1        0.0382
     18 C         139.4440  142.9803  164.5894 C.ar    1  UNL1       -0.0038
     19 C         139.3369  144.3748  164.0473 C.ar    1  UNL1       -0.0012
     20 C         138.7337  144.6091  162.6941 C.ar    1  UNL1        0.0204
     21 C         138.2375  143.4489  161.8830 C.ar    1  UNL1        0.0988
     22 N         138.3446  142.0545  162.4252 N.ar    1  UNL1       -0.2442
     23 C         138.9478  141.8201  163.7784 C.ar    1  UNL1        0.0774
     24 C         139.0549  140.4256  164.3205 C.ar    1  UNL1        0.0190
     25 C         138.1783  139.9940  165.4586 C.ar    1  UNL1        0.0129
     26 C         138.2854  138.5995  166.0007 C.ar    1  UNL1        0.0586
     27 CL        137.4088  138.1680  167.1389 Cl      1  UNL1       -0.0822
     28 C         139.2691  137.6366  165.4048 C.ar    1  UNL1        0.0228
     29 C         140.1457  138.0682  164.2667 C.ar    1  UNL1        0.0586
     30 CL        141.1294  137.1053  163.6707 Cl      1  UNL1       -0.0822
     31 C         140.0386  139.4627  163.7246 C.ar    1  UNL1        0.0129
@<TRIPOS>BOND
     1     2     3    1
     2     3     4   ar
     3     4     5   ar
     4     5     6   ar
     5     6     7   ar
     6     7     1    1
     7     1    17    1
     8    17    18    1
     9    18    19   ar
    10    19    20   ar
    11    20    21   ar
    12    21    22   ar
    13    22    23   ar
    14    23    24    1
    15    24    25   ar
    16    25    26   ar
    17    26    27    1
    18    26    28   ar
    19    28    29   ar
    20    29    30    1
    21    29    31   ar
    22     1    11    1
    23    11    12   ar
    24    12    13   ar
    25    13    14   ar
    26    14    15   ar
    27    15    16   ar
    28     7     8   ar
    29     8     3   ar
    30    23    18   ar
    31    31    24   ar
    32    16    11   ar
    33     2     9    1
    34     2    10    1
@<TRIPOS>MOLECULE
*****
 31 34 0 0 0
SMALL
GASTEIGER

@<TRIPOS>ATOM
      1 C         141.5489  142.2215  166.3477 C.3     1  UNL1        0.0684
      2 N         143.9091  145.3096  162.8991 N.pl3   1  UNL1       -0.3426
      3 C         143.6685  143.9425  163.4676 C.ar    1  UNL1        0.1250
      4 C         144.3675  142.7524  162.8803 C.ar    1  UNL1        0.0339
      5 C         144.1270  141.3853  163.4488 C.ar    1  UNL1        0.0041
      6 C         143.1874  141.2083  164.6046 C.ar    1  UNL1        0.0152
      7 C         142.4885  142.3984  165.1919 C.ar    1  UNL1        0.0644
      8 N         142.7290  143.7655  164.6234 N.ar    1  UNL1       -0.2351
      9 H         144.5257  145.4257  162.1405 H       1  UNL1        0.1437
     10 H         143.4503  146.0907  163.2846 H       1  UNL1        0.1437
     11 C         142.0317  141.5817  167.6156 C.ar    1  UNL1        0.0026
     12 C         141.5371  140.2199  168.0040 C.ar    1  UNL1       -0.0008
     13 C         142.0199  139.5800  169.2719 C.ar    1  UNL1        0.0204
     14 C         142.9974  140.3019  170.1513 C.ar    1  UNL1        0.0989
     15 N         143.4921  141.6637  169.7628 N.ar    1  UNL1       -0.2426
     16 C         143.0092  142.3036  168.4950 C.ar    1  UNL1        0.0949
     17 C         140.1265  142.6845  166.2357 C.3     1  UNL1        0.0382
     18 C         139.5447  143.0013  164.8899 C.ar    1  UNL1       -0.0038
     19 C         139.4663  144.4246  164.4230 C.ar    1  UNL1       -0.0012
     20 C         138.8845  144.7415  163.0772 C.ar    1  UNL1        0.0204
     21 C         138.3810  143.6350  162.1985 C.ar    1  UNL1        0.0988
     22 N         138.4594  142.2117  162.6654 N.ar    1  UNL1       -0.2442
     23 C         139.0412  141.8949  164.0111 C.ar    1  UNL1        0.0774
     24 C         139.1196  140.4716  164.4781 C.ar    1  UNL1        0.0190
     25 C         138.2022  139.9858  165.5608 C.ar    1  UNL1        0.0129
     26 C         138.2806  138.5625  166.0278 C.ar    1  UNL1        0.0586
     27 CL        137.3631  138.0768  167.1105 Cl      1  UNL1       -0.0822
     28 C         139.2764  137.6249  165.4120 C.ar    1  UNL1        0.0228
     29 C         140.1939  138.1107  164.3293 C.ar    1  UNL1        0.0586
     30 CL        141.1898  137.1731  163.7134 Cl      1  UNL1       -0.0822
     31 C         140.1155  139.5340  163.8623 C.ar    1  UNL1        0.0129
@<TRIPOS>BOND
     1     2     3    1
     2     3     4   ar
     3     4     5   ar
     4     5     6   ar
     5     6     7   ar
     6     7     1    1
     7     1    17    1
     8    17    18    1
     9    18    19   ar
    10    19    20   ar
    11    20    21   ar
    12    21    22   ar
    13    22    23   ar
    14    23    24    1
    15    24    25   ar
    16    25    26   ar
    17    26    27    1
    18    26    28   ar
    19    28    29   ar
    20    29    30    1
    21    29    31   ar
    22     1    11    1
    23    11    12   ar
    24    12    13   ar
    25    13    14   ar
    26    14    15   ar
    27    15    16   ar
    28     7     8   ar
    29     8     3   ar
    30    23    18   ar
    31    31    24   ar
    32    16    11   ar
    33     2     9    1
    34     2    10    1
@<TRIPOS>MOLECULE
*****
 31 34 0 0 0
SMALL
GASTEIGER

@<TRIPOS>ATOM
      1 C         140.8613  142.5254  166.3401 C.3     1  UNL1        0.0684
      2 N         136.9576  141.1860  163.1829 N.pl3   1  UNL1       -0.3426
      3 C         137.8559  142.2372  163.7643 C.ar    1  UNL1        0.1250
      4 C         137.7007  143.6700  163.3483 C.ar    1  UNL1        0.0339
      5 C         138.5990  144.7213  163.9296 C.ar    1  UNL1        0.0041
      6 C         139.6525  144.3397  164.9269 C.ar    1  UNL1        0.0152
      7 C         139.8077  142.9070  165.3428 C.ar    1  UNL1        0.0644
      8 N         138.9094  141.8557  164.7615 N.ar    1  UNL1       -0.2351
      9 H         136.2661  141.4364  162.5284 H       1  UNL1        0.1437
     10 H         137.0595  140.2456  163.4559 H       1  UNL1        0.1437
     11 C         140.4672  141.8984  167.6446 C.ar    1  UNL1        0.0026
     12 C         140.3174  142.7494  168.8707 C.ar    1  UNL1       -0.0008
     13 C         139.9233  142.1225  170.1752 C.ar    1  UNL1        0.0204
     14 C         139.6790  140.6446  170.2535 C.ar    1  UNL1        0.0989
     15 N         139.8288  139.7936  169.0274 N.ar    1  UNL1       -0.2426
     16 C         140.2229  140.4205  167.7229 C.ar    1  UNL1        0.0949
     17 C         142.3088  142.7707  166.0329 C.3     1  UNL1        0.0382
     18 C         142.7462  143.0022  164.6168 C.ar    1  UNL1       -0.0038
     19 C         143.0550  144.3922  164.1450 C.ar    1  UNL1       -0.0012
     20 C         143.4924  144.6238  162.7291 C.ar    1  UNL1        0.0204
     21 C         143.6210  143.4654  161.7849 C.ar    1  UNL1        0.0988
     22 N         143.3123  142.0754  162.2567 N.ar    1  UNL1       -0.2442
     23 C         142.8749  141.8438  163.6727 C.ar    1  UNL1        0.0774
     24 C         142.5661  140.4538  164.1445 C.ar    1  UNL1        0.0190
     25 C         141.3841  139.7178  163.5870 C.ar    1  UNL1        0.0129
     26 C         141.0753  138.3278  164.0588 C.ar    1  UNL1        0.0586
     27 CL        139.8932  137.5918  163.5012 Cl      1  UNL1       -0.0822
     28 C         141.9486  137.6739  165.0882 C.ar    1  UNL1        0.0228
     29 C         143.1307  138.4099  165.6457 C.ar    1  UNL1        0.0586
     30 CL        144.0041  137.7560  166.6751 Cl      1  UNL1       -0.0822
     31 C         143.4394  139.7999  165.1739 C.ar    1  UNL1        0.0129
@<TRIPOS>BOND
     1     2     3    1
     2     3     4   ar
     3     4     5   ar
     4     5     6   ar
     5     6     7   ar
     6     7     1    1
     7     1    17    1
     8    17    18    1
     9    18    19   ar
    10    19    20   ar
    11    20    21   ar
    12    21    22   ar
    13    22    23   ar
    14    23    24    1
    15    24    25   ar
    16    25    26   ar
    17    26    27    1
    18    26    28   ar
    19    28    29   ar
    20    29    30    1
    21    29    31   ar
    22     1    11    1
    23    11    12   ar
    24    12    13   ar
    25    13    14   ar
    26    14    15   ar
    27    15    16   ar
    28     7     8   ar
    29     8     3   ar
    30    23    18   ar
    31    31    24   ar
    32    16    11   ar
    33     2     9    1
    34     2    10    1
@<TRIPOS>MOLECULE
*****
 31 34 0 0 0
SMALL
GASTEIGER

@<TRIPOS>ATOM
      1 C         141.5412  141.6368  166.9761 C.3     1  UNL1        0.0684
      2 N         145.2964  141.6483  163.3847 N.pl3   1  UNL1       -0.3426
      3 C         144.4011  140.8979  164.3256 C.ar    1  UNL1        0.1250
      4 C         144.4880  139.4030  164.4117 C.ar    1  UNL1        0.0339
      5 C         143.5927  138.6526  165.3526 C.ar    1  UNL1        0.0041
      6 C         142.6104  139.3972  166.2074 C.ar    1  UNL1        0.0152
      7 C         142.5235  140.8922  166.1213 C.ar    1  UNL1        0.0644
      8 N         143.4188  141.6425  165.1803 N.ar    1  UNL1       -0.2351
      9 H         145.9411  141.1596  162.8236 H       1  UNL1        0.1437
     10 H         145.2393  142.6295  163.3281 H       1  UNL1        0.1437
     11 C         141.9860  142.2463  168.2725 C.ar    1  UNL1        0.0026
     12 C         143.4000  142.0662  168.7397 C.ar    1  UNL1       -0.0008
     13 C         143.8448  142.6757  170.0361 C.ar    1  UNL1        0.0204
     14 C         142.8758  143.4652  170.8653 C.ar    1  UNL1        0.0989
     15 N         141.4618  143.6453  170.3980 N.ar    1  UNL1       -0.2426
     16 C         141.0169  143.0358  169.1016 C.ar    1  UNL1        0.0949
     17 C         140.1141  141.7720  166.5344 C.3     1  UNL1        0.0382
     18 C         139.7805  142.5712  165.3096 C.ar    1  UNL1       -0.0038
     19 C         139.5838  144.0547  165.4126 C.ar    1  UNL1       -0.0012
     20 C         139.2503  144.8539  164.1879 C.ar    1  UNL1        0.0204
     21 C         139.1133  144.1696  162.8602 C.ar    1  UNL1        0.0988
     22 N         139.3099  142.6861  162.7572 N.ar    1  UNL1       -0.2442
     23 C         139.6435  141.8869  163.9819 C.ar    1  UNL1        0.0774
     24 C         139.8401  140.4034  163.8789 C.ar    1  UNL1        0.0190
     25 C         139.0421  139.4789  164.7497 C.ar    1  UNL1        0.0129
     26 C         139.2387  137.9954  164.6467 C.ar    1  UNL1        0.0586
     27 CL        138.4407  137.0708  165.5176 Cl      1  UNL1       -0.0822
     28 C         140.2333  137.4364  163.6729 C.ar    1  UNL1        0.0228
     29 C         141.0312  138.3610  162.8020 C.ar    1  UNL1        0.0586
     30 CL        142.0258  137.8021  161.8281 Cl      1  UNL1       -0.0822
     31 C         140.8346  139.8445  162.9050 C.ar    1  UNL1        0.0129
@<TRIPOS>BOND
     1     2     3    1
     2     3     4   ar
     3     4     5   ar
     4     5     6   ar
     5     6     7   ar
     6     7     1    1
     7     1    17    1
     8    17    18    1
     9    18    19   ar
    10    19    20   ar
    11    20    21   ar
    12    21    22   ar
    13    22    23   ar
    14    23    24    1
    15    24    25   ar
    16    25    26   ar
    17    26    27    1
    18    26    28   ar
    19    28    29   ar
    20    29    30    1
    21    29    31   ar
    22     1    11    1
    23    11    12   ar
    24    12    13   ar
    25    13    14   ar
    26    14    15   ar
    27    15    16   ar
    28     7     8   ar
    29     8     3   ar
    30    23    18   ar
    31    31    24   ar
    32    16    11   ar
    33     2     9    1
    34     2    10    1
@<TRIPOS>MOLECULE
*****
 31 34 0 0 0
SMALL
GASTEIGER

@<TRIPOS>ATOM
      1 C         140.7254  142.1154  166.6180 C.3     1  UNL1        0.0684
      2 N         142.3792  145.2775  162.8410 N.pl3   1  UNL1       -0.3426
      3 C         142.6737  144.3872  164.0117 C.ar    1  UNL1        0.1250
      4 C         144.0897  144.1876  164.4646 C.ar    1  UNL1        0.0339
      5 C         144.3843  143.2972  165.6353 C.ar    1  UNL1        0.0041
      6 C         143.2629  142.6065  166.3531 C.ar    1  UNL1        0.0152
      7 C         141.8469  142.8061  165.9002 C.ar    1  UNL1        0.0644
      8 N         141.5523  143.6964  164.7295 N.ar    1  UNL1       -0.2351
      9 H         143.1152  145.7308  162.3698 H       1  UNL1        0.1437
     10 H         141.4498  145.4085  162.5437 H       1  UNL1        0.1437
     11 C         140.7954  141.9165  168.1031 C.ar    1  UNL1        0.0026
     12 C         141.1201  140.5638  168.6642 C.ar    1  UNL1       -0.0008
     13 C         141.1901  140.3649  170.1493 C.ar    1  UNL1        0.0204
     14 C         140.9353  141.5186  171.0734 C.ar    1  UNL1        0.0989
     15 N         140.6105  142.8714  170.5123 N.ar    1  UNL1       -0.2426
     16 C         140.5405  143.0703  169.0272 C.ar    1  UNL1        0.0949
     17 C         139.5341  141.6236  165.8508 C.3     1  UNL1        0.0382
     18 C         139.2503  140.1530  165.7677 C.ar    1  UNL1       -0.0038
     19 C         138.1492  139.5539  166.5916 C.ar    1  UNL1       -0.0012
     20 C         137.8655  138.0833  166.5085 C.ar    1  UNL1        0.0204
     21 C         138.6828  137.2119  165.6016 C.ar    1  UNL1        0.0988
     22 N         139.7838  137.8110  164.7777 N.ar    1  UNL1       -0.2442
     23 C         140.0676  139.2815  164.8607 C.ar    1  UNL1        0.0774
     24 C         141.1686  139.8806  164.0369 C.ar    1  UNL1        0.0190
     25 C         142.6011  139.6444  164.4140 C.ar    1  UNL1        0.0129
     26 C         143.7021  140.2435  163.5901 C.ar    1  UNL1        0.0586
     27 CL        145.1346  140.0072  163.9673 Cl      1  UNL1       -0.0822
     28 C         143.3707  141.0788  162.3891 C.ar    1  UNL1        0.0228
     29 C         141.9383  141.3150  162.0120 C.ar    1  UNL1        0.0586
     30 CL        141.6068  142.1503  160.8109 Cl      1  UNL1       -0.0822
     31 C         140.8372  140.7159  162.8359 C.ar    1  UNL1        0.0129
@<TRIPOS>BOND
     1     2     3    1
     2     3     4   ar
     3     4     5   ar
     4     5     6   ar
     5     6     7   ar
     6     7     1    1
     7     1    17    1
     8    17    18    1
     9    18    19   ar
    10    19    20   ar
    11    20    21   ar
    12    21    22   ar
    13    22    23   ar
    14    23    24    1
    15    24    25   ar
    16    25    26   ar
    17    26    27    1
    18    26    28   ar
    19    28    29   ar
    20    29    30    1
    21    29    31   ar
    22     1    11    1
    23    11    12   ar
    24    12    13   ar
    25    13    14   ar
    26    14    15   ar
    27    15    16   ar
    28     7     8   ar
    29     8     3   ar
    30    23    18   ar
    31    31    24   ar
    32    16    11   ar
    33     2     9    1
    34     2    10    1
@<TRIPOS>MOLECULE
*****
 31 34 0 0 0
SMALL
GASTEIGER

@<TRIPOS>ATOM
      1 C         141.7479  142.1350  166.4647 C.3     1  UNL1        0.0684
      2 N         144.7223  139.7280  162.9492 N.pl3   1  UNL1       -0.3426
      3 C         144.2484  140.9923  163.6026 C.ar    1  UNL1        0.1250
      4 C         144.7877  142.3173  163.1516 C.ar    1  UNL1        0.0339
      5 C         144.3137  143.5816  163.8051 C.ar    1  UNL1        0.0041
      6 C         143.3005  143.5209  164.9094 C.ar    1  UNL1        0.0152
      7 C         142.7612  142.1958  165.3603 C.ar    1  UNL1        0.0644
      8 N         143.2351  140.9315  164.7069 N.ar    1  UNL1       -0.2351
      9 H         145.3874  139.7679  162.2243 H       1  UNL1        0.1437
     10 H         144.3684  138.8583  163.2451 H       1  UNL1        0.1437
     11 C         142.1028  141.4943  167.7737 C.ar    1  UNL1        0.0026
     12 C         141.4367  140.2158  168.1880 C.ar    1  UNL1       -0.0008
     13 C         141.7916  139.5750  169.4970 C.ar    1  UNL1        0.0204
     14 C         142.8126  140.2128  170.3917 C.ar    1  UNL1        0.0989
     15 N         143.4788  141.4914  169.9775 N.ar    1  UNL1       -0.2426
     16 C         143.1239  142.1321  168.6685 C.ar    1  UNL1        0.0949
     17 C         140.3798  142.7149  166.2601 C.3     1  UNL1        0.0382
     18 C         139.9150  143.0711  164.8791 C.ar    1  UNL1       -0.0038
     19 C         139.9654  144.4967  164.4152 C.ar    1  UNL1       -0.0012
     20 C         139.5007  144.8529  163.0342 C.ar    1  UNL1        0.0204
     21 C         138.9856  143.7836  162.1172 C.ar    1  UNL1        0.0988
     22 N         138.9352  142.3580  162.5810 N.ar    1  UNL1       -0.2442
     23 C         139.3999  142.0018  163.9620 C.ar    1  UNL1        0.0774
     24 C         139.3496  140.5762  164.4258 C.ar    1  UNL1        0.0190
     25 C         140.2335  139.5474  163.7853 C.ar    1  UNL1        0.0129
     26 C         140.1831  138.1218  164.2492 C.ar    1  UNL1        0.0586
     27 CL        141.0671  137.0930  163.6086 Cl      1  UNL1       -0.0822
     28 C         139.2489  137.7250  165.3536 C.ar    1  UNL1        0.0228
     29 C         138.3650  138.7538  165.9940 C.ar    1  UNL1        0.0586
     30 CL        137.4306  138.3570  167.0985 Cl      1  UNL1       -0.0822
     31 C         138.4153  140.1794  165.5302 C.ar    1  UNL1        0.0129
@<TRIPOS>BOND
     1     2     3    1
     2     3     4   ar
     3     4     5   ar
     4     5     6   ar
     5     6     7   ar
     6     7     1    1
     7     1    17    1
     8    17    18    1
     9    18    19   ar
    10    19    20   ar
    11    20    21   ar
    12    21    22   ar
    13    22    23   ar
    14    23    24    1
    15    24    25   ar
    16    25    26   ar
    17    26    27    1
    18    26    28   ar
    19    28    29   ar
    20    29    30    1
    21    29    31   ar
    22     1    11    1
    23    11    12   ar
    24    12    13   ar
    25    13    14   ar
    26    14    15   ar
    27    15    16   ar
    28     7     8   ar
    29     8     3   ar
    30    23    18   ar
    31    31    24   ar
    32    16    11   ar
    33     2     9    1
    34     2    10    1
@<TRIPOS>MOLECULE
*****
 31 34 0 0 0
SMALL
GASTEIGER

@<TRIPOS>ATOM
      1 C         141.2506  141.9472  165.9914 C.3     1  UNL1        0.0684
      2 N         139.8547  144.0156  170.5491 N.pl3   1  UNL1       -0.3426
      3 C         140.8882  143.3591  169.6826 C.ar    1  UNL1        0.1250
      4 C         142.2573  143.0803  170.2284 C.ar    1  UNL1        0.0339
      5 C         143.2908  142.4238  169.3619 C.ar    1  UNL1        0.0041
      6 C         142.9553  142.0461  167.9496 C.ar    1  UNL1        0.0152
      7 C         141.5862  142.3249  167.4038 C.ar    1  UNL1        0.0644
      8 N         140.5527  142.9814  168.2703 N.ar    1  UNL1       -0.2351
      9 H         140.0750  144.2635  171.4761 H       1  UNL1        0.1437
     10 H         138.9562  144.1986  170.1909 H       1  UNL1        0.1437
     11 C         140.1445  142.6565  165.2680 C.ar    1  UNL1        0.0026
     12 C         140.3664  144.0383  164.7284 C.ar    1  UNL1       -0.0008
     13 C         139.2603  144.7477  164.0050 C.ar    1  UNL1        0.0204
     14 C         137.9322  144.0752  163.8212 C.ar    1  UNL1        0.0989
     15 N         137.7102  142.6932  164.3608 N.ar    1  UNL1       -0.2426
     16 C         138.8163  141.9839  165.0842 C.ar    1  UNL1        0.0949
     17 C         142.0211  140.8602  165.3025 C.3     1  UNL1        0.0382
     18 C         143.0541  141.2101  164.2725 C.ar    1  UNL1       -0.0038
     19 C         144.4487  141.5619  164.6984 C.ar    1  UNL1       -0.0012
     20 C         145.4816  141.9118  163.6686 C.ar    1  UNL1        0.0204
     21 C         145.1199  141.9100  162.2129 C.ar    1  UNL1        0.0988
     22 N         143.7253  141.5583  161.7870 N.ar    1  UNL1       -0.2442
     23 C         142.6924  141.2083  162.8168 C.ar    1  UNL1        0.0774
     24 C         141.2978  140.8566  162.3909 C.ar    1  UNL1        0.0190
     25 C         140.4521  141.8715  161.6806 C.ar    1  UNL1        0.0129
     26 C         139.0575  141.5197  161.2547 C.ar    1  UNL1        0.0586
     27 CL        138.2117  142.5347  160.5442 Cl      1  UNL1       -0.0822
     28 C         138.5086  140.1531  161.5392 C.ar    1  UNL1        0.0228
     29 C         139.3543  139.1382  162.2496 C.ar    1  UNL1        0.0586
     30 CL        138.8055  137.7714  162.5341 Cl      1  UNL1       -0.0822
     31 C         140.7489  139.4899  162.6755 C.ar    1  UNL1        0.0129
@<TRIPOS>BOND
     1     2     3    1
     2     3     4   ar
     3     4     5   ar
     4     5     6   ar
     5     6     7   ar
     6     7     1    1
     7     1    17    1
     8    17    18    1
     9    18    19   ar
    10    19    20   ar
    11    20    21   ar
    12    21    22   ar
    13    22    23   ar
    14    23    24    1
    15    24    25   ar
    16    25    26   ar
    17    26    27    1
    18    26    28   ar
    19    28    29   ar
    20    29    30    1
    21    29    31   ar
    22     1    11    1
    23    11    12   ar
    24    12    13   ar
    25    13    14   ar
    26    14    15   ar
    27    15    16   ar
    28     7     8   ar
    29     8     3   ar
    30    23    18   ar
    31    31    24   ar
    32    16    11   ar
    33     2     9    1
    34     2    10    1
