@<TRIPOS>MOLECULE
*****
 26 29 0 0 0
SMALL
GASTEIGER

@<TRIPOS>ATOM
      1 C         138.3003  143.1499  163.1144 C.3     1  UNL1        0.0543
      2 C         138.6342  144.3025  164.0144 C.3     1  UNL1        0.0161
      3 C         139.1999  143.7475  165.2880 C.3     1  UNL1        0.0058
      4 C         139.2156  142.2518  165.1750 C.3     1  UNL1        0.0240
      5 C         139.7274  142.8745  166.4400 C.3     1  UNL1        0.0301
      6 C         140.2758  142.1969  167.6608 C.ar    1  UNL1       -0.0255
      7 C         140.6784  143.1938  168.7067 C.ar    1  UNL1       -0.0046
      8 C         141.2531  142.7230  170.0098 C.ar    1  UNL1       -0.0003
      9 C         141.4251  141.2553  170.2669 C.ar    1  UNL1       -0.0003
     10 C         141.0224  140.2583  169.2210 C.ar    1  UNL1       -0.0042
     11 C         140.4478  140.7292  167.9179 C.ar    1  UNL1       -0.0217
     12 C         140.1139  139.5766  167.0179 C.3     1  UNL1        0.0520
     13 C         139.5255  139.6070  165.6384 C.ar    1  UNL1       -0.0218
     14 C         139.3498  138.2232  165.0869 C.ar    1  UNL1       -0.0042
     15 C         138.7742  138.0300  163.7152 C.ar    1  UNL1       -0.0003
     16 C         138.3745  139.2205  162.8951 C.ar    1  UNL1       -0.0003
     17 C         138.5502  140.6044  163.4466 C.ar    1  UNL1       -0.0046
     18 C         139.1257  140.7976  164.8183 C.ar    1  UNL1       -0.0261
     19 C         138.6596  141.8825  163.8317 C.3     1  UNL1        0.0201
     20 N         137.7106  143.2476  161.7386 N.3     1  UNL1       -0.2982
     21 H         136.8666  142.6748  161.7386 H       1  UNL1        0.1232
     22 C         138.5176  142.8296  160.5453 C.3     1  UNL1        0.0745
     23 C         139.9849  143.1355  160.4876 C.3     1  UNL1        0.0588
     24 O         139.4939  145.6632  160.8325 O.co2   1  UNL1       -0.5491
     25 C         140.4555  144.5596  160.5048 C.2     1  UNL1        0.0517
     26 O         141.8876  144.8801  160.1945 O.co2   1  UNL1       -0.5491
@<TRIPOS>UNITY_ATOM_ATTR
24 1
charge -1
@<TRIPOS>BOND
     1    24    25   ar
     2    25    26   ar
     3    25    23    1
     4    23    22    1
     5    22    20    1
     6    20     1    1
     7     1     2    1
     8     2     3    1
     9     4     3    1
    10     4     5    1
    11     5     6    1
    12     6     7   ar
    13     7     8   ar
    14     8     9   ar
    15     9    10   ar
    16    10    11   ar
    17    11    12    1
    18    12    13    1
    19    13    14   ar
    20    14    15   ar
    21    15    16   ar
    22    16    17   ar
    23    17    18   ar
    24     4    19    1
    25    19     1    1
    26    18     4    1
    27    11     6   ar
    28    18    13   ar
    29    20    21    1
@<TRIPOS>MOLECULE
*****
 26 29 0 0 0
SMALL
GASTEIGER

@<TRIPOS>ATOM
      1 C         142.0465  141.9495  167.5580 C.3     1  UNL1        0.0543
      2 C         143.2849  142.2628  166.7719 C.3     1  UNL1        0.0161
      3 C         143.2873  141.3979  165.5464 C.3     1  UNL1        0.0058
      4 C         142.0504  140.5500  165.5752 C.3     1  UNL1        0.0240
      5 C         142.9926  140.3935  164.4186 C.3     1  UNL1        0.0301
      6 C         142.8783  139.4773  163.2364 C.ar    1  UNL1       -0.0255
      7 C         144.0433  139.6365  162.3051 C.ar    1  UNL1       -0.0046
      8 C         144.1235  138.8096  161.0562 C.ar    1  UNL1       -0.0003
      9 C         143.0387  137.8236  160.7386 C.ar    1  UNL1       -0.0003
     10 C         141.8737  137.6644  161.6699 C.ar    1  UNL1       -0.0042
     11 C         141.7935  138.4913  162.9188 C.ar    1  UNL1       -0.0217
     12 C         140.5551  138.1779  163.7050 C.3     1  UNL1        0.0520
     13 C         140.0955  138.7731  165.0029 C.ar    1  UNL1       -0.0218
     14 C         138.7942  138.1756  165.4496 C.ar    1  UNL1       -0.0042
     15 C         138.1584  138.6338  166.7286 C.ar    1  UNL1       -0.0003
     16 C         138.8238  139.6894  167.5609 C.ar    1  UNL1       -0.0003
     17 C         140.1252  140.2869  167.1142 C.ar    1  UNL1       -0.0046
     18 C         140.7610  139.8288  165.8352 C.ar    1  UNL1       -0.0261
     19 C         141.2835  140.8909  166.8184 C.3     1  UNL1        0.0201
     20 N         141.6421  142.5834  168.8560 N.3     1  UNL1       -0.2982
     21 H         141.8931  143.5700  168.7926 H       1  UNL1        0.1232
     22 C         142.2092  142.0746  170.1480 C.3     1  UNL1        0.0745
     23 C         141.5999  140.8769  170.8145 C.3     1  UNL1        0.0588
     24 O         139.2164  141.8555  170.4815 O.co2   1  UNL1       -0.5491
     25 C         140.1104  140.7008  170.8244 C.2     1  UNL1        0.0517
     26 O         139.5147  139.3702  171.1772 O.co2   1  UNL1       -0.5491
@<TRIPOS>UNITY_ATOM_ATTR
24 1
charge -1
@<TRIPOS>BOND
     1    24    25   ar
     2    25    26   ar
     3    25    23    1
     4    23    22    1
     5    22    20    1
     6    20     1    1
     7     1     2    1
     8     2     3    1
     9     4     3    1
    10     4     5    1
    11     5     6    1
    12     6     7   ar
    13     7     8   ar
    14     8     9   ar
    15     9    10   ar
    16    10    11   ar
    17    11    12    1
    18    12    13    1
    19    13    14   ar
    20    14    15   ar
    21    15    16   ar
    22    16    17   ar
    23    17    18   ar
    24     4    19    1
    25    19     1    1
    26    18     4    1
    27    11     6   ar
    28    18    13   ar
    29    20    21    1
@<TRIPOS>MOLECULE
*****
 26 29 0 0 0
SMALL
GASTEIGER

@<TRIPOS>ATOM
      1 C         141.7811  140.4641  168.8105 C.3     1  UNL1        0.0543
      2 C         142.9985  141.3374  168.7400 C.3     1  UNL1        0.0161
      3 C         143.0375  141.9696  167.3803 C.3     1  UNL1        0.0058
      4 C         141.8440  141.4869  166.6105 C.3     1  UNL1        0.0240
      5 C         142.7870  142.4390  165.9365 C.3     1  UNL1        0.0301
      6 C         142.7122  143.0047  164.5493 C.ar    1  UNL1       -0.0255
      7 C         143.8632  143.9251  164.2700 C.ar    1  UNL1       -0.0046
      8 C         143.9779  144.5987  162.9347 C.ar    1  UNL1       -0.0003
      9 C         142.9415  144.3520  161.8787 C.ar    1  UNL1       -0.0003
     10 C         141.7905  143.4317  162.1581 C.ar    1  UNL1       -0.0042
     11 C         141.6758  142.7580  163.4933 C.ar    1  UNL1       -0.0217
     12 C         140.4583  141.8847  163.5639 C.3     1  UNL1        0.0520
     13 C         139.9765  141.0423  164.7076 C.ar    1  UNL1       -0.0218
     14 C         138.7085  140.3200  164.3604 C.ar    1  UNL1       -0.0042
     15 C         138.0573  139.4207  165.3689 C.ar    1  UNL1       -0.0003
     16 C         138.6740  139.2437  166.7247 C.ar    1  UNL1       -0.0003
     17 C         139.9420  139.9660  167.0721 C.ar    1  UNL1       -0.0046
     18 C         140.5932  140.8653  166.0635 C.ar    1  UNL1       -0.0261
     19 C         141.0675  140.5564  167.4944 C.3     1  UNL1        0.0201
     20 N         141.3524  139.6425  169.9901 N.3     1  UNL1       -0.2982
     21 H         141.2768  138.6785  169.6657 H       1  UNL1        0.1232
     22 C         140.0706  139.9620  170.7006 C.3     1  UNL1        0.0745
     23 C         139.4451  141.3166  170.5465 C.3     1  UNL1        0.0588
     24 O         139.6488  143.9032  170.6815 O.co2   1  UNL1       -0.5491
     25 C         140.1805  142.5394  171.0092 C.2     1  UNL1        0.0517
     26 O         141.4475  142.3984  171.7995 O.co2   1  UNL1       -0.5491
@<TRIPOS>UNITY_ATOM_ATTR
24 1
charge -1
@<TRIPOS>BOND
     1    24    25   ar
     2    25    26   ar
     3    25    23    1
     4    23    22    1
     5    22    20    1
     6    20     1    1
     7     1     2    1
     8     2     3    1
     9     4     3    1
    10     4     5    1
    11     5     6    1
    12     6     7   ar
    13     7     8   ar
    14     8     9   ar
    15     9    10   ar
    16    10    11   ar
    17    11    12    1
    18    12    13    1
    19    13    14   ar
    20    14    15   ar
    21    15    16   ar
    22    16    17   ar
    23    17    18   ar
    24     4    19    1
    25    19     1    1
    26    18     4    1
    27    11     6   ar
    28    18    13   ar
    29    20    21    1
@<TRIPOS>MOLECULE
*****
 26 29 0 0 0
SMALL
GASTEIGER

@<TRIPOS>ATOM
      1 C         138.9172  142.9895  163.0373 C.3     1  UNL1        0.0543
      2 C         138.0026  142.1958  163.9224 C.3     1  UNL1        0.0161
      3 C         138.7808  141.7731  165.1331 C.3     1  UNL1        0.0058
      4 C         140.1763  142.3057  164.9962 C.3     1  UNL1        0.0240
      5 C         139.8363  141.5097  166.2213 C.3     1  UNL1        0.0301
      6 C         140.7202  141.1513  167.3790 C.ar    1  UNL1       -0.0255
      7 C         139.9820  140.3386  168.4010 C.ar    1  UNL1       -0.0046
      8 C         140.6861  139.8751  169.6417 C.ar    1  UNL1       -0.0003
      9 C         142.1285  140.2242  169.8603 C.ar    1  UNL1       -0.0003
     10 C         142.8666  141.0369  168.8383 C.ar    1  UNL1       -0.0042
     11 C         142.1625  141.5004  167.5976 C.ar    1  UNL1       -0.0217
     12 C         143.0771  142.2942  166.7125 C.3     1  UNL1        0.0520
     13 C         142.7754  142.9349  165.3902 C.ar    1  UNL1       -0.0218
     14 C         143.9781  143.6385  164.8349 C.ar    1  UNL1       -0.0042
     15 C         143.8899  144.3471  163.5158 C.ar    1  UNL1       -0.0003
     16 C         142.5990  144.3523  162.7520 C.ar    1  UNL1       -0.0003
     17 C         141.3962  143.6487  163.3073 C.ar    1  UNL1       -0.0046
     18 C         141.4844  142.9400  164.6264 C.ar    1  UNL1       -0.0261
     19 C         140.2606  143.0575  163.7010 C.3     1  UNL1        0.0201
     20 N         138.5524  143.6069  161.7198 N.3     1  UNL1       -0.2982
     21 H         137.5336  143.6235  161.6744 H       1  UNL1        0.1232
     22 C         139.0327  142.9858  160.4418 C.3     1  UNL1        0.0745
     23 C         139.7935  143.8106  159.4464 C.3     1  UNL1        0.0588
     24 O         139.6106  146.0577  160.7375 O.co2   1  UNL1       -0.5491
     25 C         140.3896  145.1235  159.8598 C.2     1  UNL1        0.0517
     26 O         141.7647  145.5022  159.3955 O.co2   1  UNL1       -0.5491
@<TRIPOS>UNITY_ATOM_ATTR
24 1
charge -1
@<TRIPOS>BOND
     1    24    25   ar
     2    25    26   ar
     3    25    23    1
     4    23    22    1
     5    22    20    1
     6    20     1    1
     7     1     2    1
     8     2     3    1
     9     4     3    1
    10     4     5    1
    11     5     6    1
    12     6     7   ar
    13     7     8   ar
    14     8     9   ar
    15     9    10   ar
    16    10    11   ar
    17    11    12    1
    18    12    13    1
    19    13    14   ar
    20    14    15   ar
    21    15    16   ar
    22    16    17   ar
    23    17    18   ar
    24     4    19    1
    25    19     1    1
    26    18     4    1
    27    11     6   ar
    28    18    13   ar
    29    20    21    1
@<TRIPOS>MOLECULE
*****
 26 29 0 0 0
SMALL
GASTEIGER

@<TRIPOS>ATOM
      1 C         140.2333  145.0385  163.8865 C.3     1  UNL1        0.0543
      2 C         139.1408  144.8138  164.8893 C.3     1  UNL1        0.0161
      3 C         139.5944  143.7431  165.8369 C.3     1  UNL1        0.0058
      4 C         140.9673  143.3062  165.4196 C.3     1  UNL1        0.0240
      5 C         140.3439  142.6469  166.6141 C.3     1  UNL1        0.0301
      6 C         140.9119  141.5705  167.4910 C.ar    1  UNL1       -0.0255
      7 C         139.9555  141.1914  168.5826 C.ar    1  UNL1       -0.0046
      8 C         140.3308  140.1294  169.5731 C.ar    1  UNL1       -0.0003
      9 C         141.6625  139.4464  169.4719 C.ar    1  UNL1       -0.0003
     10 C         142.6188  139.8254  168.3803 C.ar    1  UNL1       -0.0042
     11 C         142.2435  140.8875  167.3899 C.ar    1  UNL1       -0.0217
     12 C         143.3361  141.1122  166.3869 C.3     1  UNL1        0.0520
     13 C         143.3669  142.0754  165.2374 C.ar    1  UNL1       -0.0218
     14 C         144.6561  141.9798  164.4767 C.ar    1  UNL1       -0.0042
     15 C         144.8911  142.8606  163.2855 C.ar    1  UNL1       -0.0003
     16 C         143.8369  143.8369  162.8550 C.ar    1  UNL1       -0.0003
     17 C         142.5477  143.9326  163.6157 C.ar    1  UNL1       -0.0046
     18 C         142.3126  143.0518  164.8069 C.ar    1  UNL1       -0.0261
     19 C         141.3622  144.1067  164.2141 C.3     1  UNL1        0.0201
     20 N         140.2024  146.0223  162.7545 N.3     1  UNL1       -0.2982
     21 H         139.5921  146.7862  163.0449 H       1  UNL1        0.1232
     22 C         139.7369  145.5885  161.3962 C.3     1  UNL1        0.0745
     23 C         140.0349  144.2017  160.9087 C.3     1  UNL1        0.0588
     24 O         139.8446  141.8569  162.0113 O.co2   1  UNL1       -0.5491
     25 C         139.1953  143.0477  161.3704 C.2     1  UNL1        0.0517
     26 O         137.7065  143.0843  161.1913 O.co2   1  UNL1       -0.5491
@<TRIPOS>UNITY_ATOM_ATTR
24 1
charge -1
@<TRIPOS>BOND
     1    24    25   ar
     2    25    26   ar
     3    25    23    1
     4    23    22    1
     5    22    20    1
     6    20     1    1
     7     1     2    1
     8     2     3    1
     9     4     3    1
    10     4     5    1
    11     5     6    1
    12     6     7   ar
    13     7     8   ar
    14     8     9   ar
    15     9    10   ar
    16    10    11   ar
    17    11    12    1
    18    12    13    1
    19    13    14   ar
    20    14    15   ar
    21    15    16   ar
    22    16    17   ar
    23    17    18   ar
    24     4    19    1
    25    19     1    1
    26    18     4    1
    27    11     6   ar
    28    18    13   ar
    29    20    21    1
@<TRIPOS>MOLECULE
*****
 26 29 0 0 0
SMALL
GASTEIGER

@<TRIPOS>ATOM
      1 C         139.1624  139.9224  168.2542 C.3     1  UNL1        0.0543
      2 C         138.1341  139.0594  167.5851 C.3     1  UNL1        0.0161
      3 C         138.4901  138.9565  166.1316 C.3     1  UNL1        0.0058
      4 C         139.7384  139.7560  165.9025 C.3     1  UNL1        0.0240
      5 C         139.1194  139.0532  164.7308 C.3     1  UNL1        0.0301
      6 C         139.5812  139.0290  163.3039 C.ar    1  UNL1       -0.0255
      7 C         138.6700  138.2013  162.4469 C.ar    1  UNL1       -0.0046
      8 C         138.9538  138.0463  160.9822 C.ar    1  UNL1       -0.0003
      9 C         140.1488  138.7191  160.3745 C.ar    1  UNL1       -0.0003
     10 C         141.0600  139.5468  161.2315 C.ar    1  UNL1       -0.0042
     11 C         140.7762  139.7018  162.6962 C.ar    1  UNL1       -0.0217
     12 C         141.8045  140.5648  163.3654 C.3     1  UNL1        0.0520
     13 C         141.8919  140.9683  164.8074 C.ar    1  UNL1       -0.0218
     14 C         143.0833  141.8437  165.0605 C.ar    1  UNL1       -0.0042
     15 C         143.3552  142.3592  166.4426 C.ar    1  UNL1       -0.0003
     16 C         142.4357  141.9993  167.5717 C.ar    1  UNL1       -0.0003
     17 C         141.2442  141.1238  167.3187 C.ar    1  UNL1       -0.0046
     18 C         140.9723  140.6083  165.9365 C.ar    1  UNL1       -0.0261
     19 C         140.1539  140.3529  167.2144 C.3     1  UNL1        0.0201
     20 N         139.1937  140.2904  169.7081 N.3     1  UNL1       -0.2982
     21 H         139.1415  141.3079  169.7555 H       1  UNL1        0.1232
     22 C         140.3553  139.8761  170.5619 C.3     1  UNL1        0.0745
     23 C         141.3198  140.9074  171.0678 C.3     1  UNL1        0.0588
     24 O         141.9905  143.3867  170.6767 O.co2   1  UNL1       -0.5491
     25 C         140.9532  142.3613  171.0267 C.2     1  UNL1        0.0517
     26 O         139.5493  142.7899  171.3356 O.co2   1  UNL1       -0.5491
@<TRIPOS>UNITY_ATOM_ATTR
24 1
charge -1
@<TRIPOS>BOND
     1    24    25   ar
     2    25    26   ar
     3    25    23    1
     4    23    22    1
     5    22    20    1
     6    20     1    1
     7     1     2    1
     8     2     3    1
     9     4     3    1
    10     4     5    1
    11     5     6    1
    12     6     7   ar
    13     7     8   ar
    14     8     9   ar
    15     9    10   ar
    16    10    11   ar
    17    11    12    1
    18    12    13    1
    19    13    14   ar
    20    14    15   ar
    21    15    16   ar
    22    16    17   ar
    23    17    18   ar
    24     4    19    1
    25    19     1    1
    26    18     4    1
    27    11     6   ar
    28    18    13   ar
    29    20    21    1
@<TRIPOS>MOLECULE
*****
 26 29 0 0 0
SMALL
GASTEIGER

@<TRIPOS>ATOM
      1 C         140.0920  141.2301  168.0628 C.3     1  UNL1        0.0543
      2 C         140.4497  142.6862  168.0252 C.3     1  UNL1        0.0161
      3 C         140.3743  143.1455  166.5993 C.3     1  UNL1        0.0058
      4 C         139.9700  141.9731  165.7555 C.3     1  UNL1        0.0240
      5 C         140.2074  143.2893  165.0764 C.3     1  UNL1        0.0301
      6 C         140.0964  143.6229  163.6182 C.ar    1  UNL1       -0.0255
      7 C         140.4210  145.0643  163.3594 C.ar    1  UNL1       -0.0046
      8 C         140.3697  145.6053  161.9614 C.ar    1  UNL1       -0.0003
      9 C         139.9938  144.7049  160.8221 C.ar    1  UNL1       -0.0003
     10 C         139.6692  143.2636  161.0808 C.ar    1  UNL1       -0.0042
     11 C         139.7205  142.7225  162.4789 C.ar    1  UNL1       -0.0217
     12 C         139.3627  141.2663  162.5164 C.3     1  UNL1        0.0520
     13 C         139.2925  140.3507  163.7025 C.ar    1  UNL1       -0.0218
     14 C         138.8931  138.9620  163.3001 C.ar    1  UNL1       -0.0042
     15 C         138.7638  137.8879  164.3391 C.ar    1  UNL1       -0.0003
     16 C         139.0341  138.2025  165.7806 C.ar    1  UNL1       -0.0003
     17 C         139.4336  139.5912  166.1831 C.ar    1  UNL1       -0.0046
     18 C         139.5628  140.6653  165.1440 C.ar    1  UNL1       -0.0261
     19 C         139.7955  140.7893  166.6600 C.3     1  UNL1        0.0201
     20 N         140.0399  140.3662  169.2880 N.3     1  UNL1       -0.2982
     21 H         139.6478  140.9388  170.0355 H       1  UNL1        0.1232
     22 C         141.2980  139.7527  169.8272 C.3     1  UNL1        0.0745
     23 C         142.2148  140.5621  170.6955 C.3     1  UNL1        0.0588
     24 O         142.6401  143.1078  170.9927 O.co2   1  UNL1       -0.5491
     25 C         141.7747  141.9015  171.2074 C.2     1  UNL1        0.0517
     26 O         140.4692  142.0348  171.9340 O.co2   1  UNL1       -0.5491
@<TRIPOS>UNITY_ATOM_ATTR
24 1
charge -1
@<TRIPOS>BOND
     1    24    25   ar
     2    25    26   ar
     3    25    23    1
     4    23    22    1
     5    22    20    1
     6    20     1    1
     7     1     2    1
     8     2     3    1
     9     4     3    1
    10     4     5    1
    11     5     6    1
    12     6     7   ar
    13     7     8   ar
    14     8     9   ar
    15     9    10   ar
    16    10    11   ar
    17    11    12    1
    18    12    13    1
    19    13    14   ar
    20    14    15   ar
    21    15    16   ar
    22    16    17   ar
    23    17    18   ar
    24     4    19    1
    25    19     1    1
    26    18     4    1
    27    11     6   ar
    28    18    13   ar
    29    20    21    1
@<TRIPOS>MOLECULE
*****
 26 29 0 0 0
SMALL
GASTEIGER

@<TRIPOS>ATOM
      1 C         144.6775  141.9686  163.8752 C.3     1  UNL1        0.0543
      2 C         144.6906  143.0657  164.8980 C.3     1  UNL1        0.0161
      3 C         143.6449  142.7528  165.9269 C.3     1  UNL1        0.0058
      4 C         142.9856  141.4622  165.5399 C.3     1  UNL1        0.0240
      5 C         142.5184  142.1531  166.7866 C.3     1  UNL1        0.0301
      6 C         141.4453  141.7289  167.7450 C.ar    1  UNL1       -0.0255
      7 C         141.2937  142.7116  168.8680 C.ar    1  UNL1       -0.0046
      8 C         140.2711  142.4742  169.9394 C.ar    1  UNL1       -0.0003
      9 C         139.4000  141.2541  169.8876 C.ar    1  UNL1       -0.0003
     10 C         139.5516  140.2715  168.7646 C.ar    1  UNL1       -0.0042
     11 C         140.5742  140.5089  167.6932 C.ar    1  UNL1       -0.0217
     12 C         140.5612  139.4118  166.6704 C.3     1  UNL1        0.0520
     13 C         141.4159  139.2637  165.4467 C.ar    1  UNL1       -0.0218
     14 C         141.0781  138.0133  164.6902 C.ar    1  UNL1       -0.0042
     15 C         141.8193  137.6753  163.4306 C.ar    1  UNL1       -0.0003
     16 C         142.8982  138.5878  162.9275 C.ar    1  UNL1       -0.0003
     17 C         143.2360  139.8383  163.6840 C.ar    1  UNL1       -0.0046
     18 C         142.4949  140.1762  164.9436 C.ar    1  UNL1       -0.0261
     19 C         143.6238  140.9776  164.2719 C.3     1  UNL1        0.0201
     20 N         145.5628  141.8784  162.6676 N.3     1  UNL1       -0.2982
     21 H         146.4413  142.3357  162.9117 H       1  UNL1        0.1232
     22 C         145.1150  142.4690  161.3635 C.3     1  UNL1        0.0745
     23 C         143.6977  142.2897  160.9062 C.3     1  UNL1        0.0588
     24 O         143.0830  144.6118  161.8961 O.co2   1  UNL1       -0.5491
     25 C         142.6901  143.3752  161.1434 C.2     1  UNL1        0.0517
     26 O         141.2896  143.2242  160.6278 O.co2   1  UNL1       -0.5491
@<TRIPOS>UNITY_ATOM_ATTR
24 1
charge -1
@<TRIPOS>BOND
     1    24    25   ar
     2    25    26   ar
     3    25    23    1
     4    23    22    1
     5    22    20    1
     6    20     1    1
     7     1     2    1
     8     2     3    1
     9     4     3    1
    10     4     5    1
    11     5     6    1
    12     6     7   ar
    13     7     8   ar
    14     8     9   ar
    15     9    10   ar
    16    10    11   ar
    17    11    12    1
    18    12    13    1
    19    13    14   ar
    20    14    15   ar
    21    15    16   ar
    22    16    17   ar
    23    17    18   ar
    24     4    19    1
    25    19     1    1
    26    18     4    1
    27    11     6   ar
    28    18    13   ar
    29    20    21    1
@<TRIPOS>MOLECULE
*****
 26 29 0 0 0
SMALL
GASTEIGER

@<TRIPOS>ATOM
      1 C         141.0847  142.3591  162.7794 C.3     1  UNL1        0.0543
      2 C         141.4652  143.5335  163.6313 C.3     1  UNL1        0.0161
      3 C         141.1338  143.1998  165.0556 C.3     1  UNL1        0.0058
      4 C         140.5485  141.8191  165.0839 C.3     1  UNL1        0.0240
      5 C         140.6864  142.5593  166.3812 C.3     1  UNL1        0.0301
      6 C         140.3108  142.1065  167.7611 C.ar    1  UNL1       -0.0255
      7 C         140.6167  143.1587  168.7854 C.ar    1  UNL1       -0.0046
      8 C         140.3163  142.9058  170.2330 C.ar    1  UNL1       -0.0003
      9 C         139.7099  141.6008  170.6563 C.ar    1  UNL1       -0.0003
     10 C         139.4039  140.5486  169.6320 C.ar    1  UNL1       -0.0042
     11 C         139.7044  140.8015  168.1844 C.ar    1  UNL1       -0.0217
     12 C         139.3239  139.6270  167.3324 C.3     1  UNL1        0.0520
     13 C         139.4557  139.4674  165.8467 C.ar    1  UNL1       -0.0218
     14 C         138.9530  138.1292  165.3925 C.ar    1  UNL1       -0.0042
     15 C         138.9952  137.7665  163.9376 C.ar    1  UNL1       -0.0003
     16 C         139.5401  138.7421  162.9370 C.ar    1  UNL1       -0.0003
     17 C         140.0429  140.0803  163.3912 C.ar    1  UNL1       -0.0046
     18 C         140.0007  140.4430  164.8461 C.ar    1  UNL1       -0.0261
     19 C         140.5181  141.2995  163.6771 C.3     1  UNL1        0.0201
     20 N         141.2430  142.2615  161.2909 N.3     1  UNL1       -0.2982
     21 H         142.0999  142.7609  161.0525 H       1  UNL1        0.1232
     22 C         140.1689  142.7883  160.3862 C.3     1  UNL1        0.0745
     23 C         138.7572  142.3039  160.5366 C.3     1  UNL1        0.0588
     24 O         137.1076  141.7351  162.4614 O.co2   1  UNL1       -0.5491
     25 C         137.9369  142.7377  161.7150 C.2     1  UNL1        0.0517
     26 O         137.9458  144.1741  162.1471 O.co2   1  UNL1       -0.5491
@<TRIPOS>UNITY_ATOM_ATTR
24 1
charge -1
@<TRIPOS>BOND
     1    24    25   ar
     2    25    26   ar
     3    25    23    1
     4    23    22    1
     5    22    20    1
     6    20     1    1
     7     1     2    1
     8     2     3    1
     9     4     3    1
    10     4     5    1
    11     5     6    1
    12     6     7   ar
    13     7     8   ar
    14     8     9   ar
    15     9    10   ar
    16    10    11   ar
    17    11    12    1
    18    12    13    1
    19    13    14   ar
    20    14    15   ar
    21    15    16   ar
    22    16    17   ar
    23    17    18   ar
    24     4    19    1
    25    19     1    1
    26    18     4    1
    27    11     6   ar
    28    18    13   ar
    29    20    21    1
