@<TRIPOS>MOLECULE
*****
 30 34 0 0 0
SMALL
GASTEIGER

@<TRIPOS>ATOM
      1 C         141.4921  138.8469  163.6830 C.ar    1  UNL1        0.0878
      2 C         140.7743  138.0215  162.6566 C.ar    1  UNL1        0.0091
      3 C         139.3875  137.5212  162.9327 C.ar    1  UNL1        0.0194
      4 C         138.7184  137.8463  164.2353 C.ar    1  UNL1        0.0844
      5 N         139.4361  138.6716  165.2617 N.ar    1  UNL1       -0.2576
      6 C         138.7670  138.9967  166.5642 C.ar    1  UNL1        0.2672
      7 O         137.3802  138.4964  166.8404 O.2     1  UNL1       -0.2665
      8 C         139.4849  139.8221  167.5907 C.ar    1  UNL1        0.0742
      9 C         138.8158  140.1472  168.8932 C.ar    1  UNL1        0.0063
     10 C         139.5335  140.9726  169.9196 C.ar    1  UNL1        0.0003
     11 C         140.9204  141.4730  169.6435 C.ar    1  UNL1        0.0015
     12 C         141.6382  142.2984  170.6699 C.ar    1  UNL1        0.0000
     13 C         143.0250  142.7987  170.3937 C.ar    1  UNL1        0.0000
     14 C         143.6941  142.4736  169.0911 C.ar    1  UNL1        0.0000
     15 C         142.9763  141.6482  168.0647 C.ar    1  UNL1        0.0015
     16 C         141.5895  141.1479  168.3409 C.ar    1  UNL1        0.0179
     17 C         140.8717  140.3225  167.3145 C.ar    1  UNL1        0.0875
     18 N         141.5408  139.9974  166.0119 N.ar    1  UNL1       -0.2276
     19 C         140.8230  139.1720  164.9855 C.ar    1  UNL1        0.1543
     20 O         143.9846  139.0691  164.3817 O.2     1  UNL1       -0.2700
     21 C         142.8790  139.3473  163.4068 C.2     1  UNL1        0.2488
     22 N         143.1602  140.1257  162.1559 N.am    1  UNL1       -0.2994
     23 H         142.4346  140.3083  161.5160 H       1  UNL1        0.1498
     24 C         144.5471  140.6260  161.8797 C.3     1  UNL1        0.1070
     25 C         144.8153  142.1008  161.8249 C.3     1  UNL1        0.0936
     26 N         144.5686  142.9535  163.0340 N.3     1  UNL1       -0.2712
     27 C         144.8626  142.5742  164.4552 C.3     1  UNL1        0.0722
     28 C         144.4602  143.7214  165.3339 C.3     1  UNL1        0.0188
     29 C         143.9175  144.8097  164.4556 C.3     1  UNL1        0.0188
     30 C         143.9845  144.3351  163.0343 C.3     1  UNL1        0.0722
@<TRIPOS>BOND
     1    20    21    2
     2    21    22   am
     3    22    24    1
     4    24    25    1
     5    25    26    1
     6    26    27    1
     7    27    28    1
     8    28    29    1
     9    29    30    1
    10    21     1    1
    11     1     2   ar
    12     2     3   ar
    13     3     4   ar
    14     4     5   ar
    15     5     6   ar
    16     6     7    2
    17     6     8   ar
    18     8     9   ar
    19     9    10   ar
    20    10    11   ar
    21    11    12   ar
    22    12    13   ar
    23    13    14   ar
    24    14    15   ar
    25    15    16   ar
    26    16    17   ar
    27    17    18   ar
    28    18    19   ar
    29    30    26    1
    30    19     1   ar
    31    19     5   ar
    32    17     8   ar
    33    16    11   ar
    34    22    23    1
@<TRIPOS>MOLECULE
*****
 30 34 0 0 0
SMALL
GASTEIGER

@<TRIPOS>ATOM
      1 C         140.4150  142.6967  161.1434 C.ar    1  UNL1        0.0878
      2 C         140.1682  142.5044  159.6764 C.ar    1  UNL1        0.0091
      3 C         139.3963  141.3115  159.1957 C.ar    1  UNL1        0.0194
      4 C         138.8711  140.3108  160.1821 C.ar    1  UNL1        0.0844
      5 N         139.1179  140.5031  161.6491 N.ar    1  UNL1       -0.2576
      6 C         138.5927  139.5024  162.6354 C.ar    1  UNL1        0.2672
      7 O         137.8208  138.3095  162.1548 O.2     1  UNL1       -0.2665
      8 C         138.8395  139.6947  164.1025 C.ar    1  UNL1        0.0742
      9 C         138.3144  138.6941  165.0888 C.ar    1  UNL1        0.0063
     10 C         138.5611  138.8863  166.5558 C.ar    1  UNL1        0.0003
     11 C         139.3331  140.0793  167.0365 C.ar    1  UNL1        0.0015
     12 C         139.5799  140.2716  168.5035 C.ar    1  UNL1        0.0000
     13 C         140.3518  141.4645  168.9842 C.ar    1  UNL1        0.0000
     14 C         140.8769  142.4651  167.9978 C.ar    1  UNL1        0.0000
     15 C         140.6302  142.2729  166.5308 C.ar    1  UNL1        0.0015
     16 C         139.8583  141.0800  166.0502 C.ar    1  UNL1        0.0179
     17 C         139.6115  140.8876  164.5831 C.ar    1  UNL1        0.0875
     18 N         140.1366  141.8883  163.5968 N.ar    1  UNL1       -0.2276
     19 C         139.8899  141.6960  162.1298 C.ar    1  UNL1        0.1543
     20 O         141.8745  144.7855  160.6368 O.2     1  UNL1       -0.2700
     21 C         141.1870  143.8896  161.6240 C.2     1  UNL1        0.2488
     22 N         141.2714  144.1866  163.0919 N.am    1  UNL1       -0.2994
     23 H         140.8201  143.5986  163.7399 H       1  UNL1        0.1498
     24 C         142.0433  145.3796  163.5725 C.3     1  UNL1        0.1070
     25 C         143.4932  145.2401  163.9308 C.3     1  UNL1        0.0936
     26 N         144.1934  143.9294  163.7267 N.3     1  UNL1       -0.2712
     27 C         144.5651  142.9515  164.8017 C.3     1  UNL1        0.0722
     28 C         145.2463  141.7841  164.1511 C.3     1  UNL1        0.0188
     29 C         145.2956  142.0406  162.6740 C.3     1  UNL1        0.0188
     30 C         144.6449  143.3664  162.4117 C.3     1  UNL1        0.0722
@<TRIPOS>BOND
     1    20    21    2
     2    21    22   am
     3    22    24    1
     4    24    25    1
     5    25    26    1
     6    26    27    1
     7    27    28    1
     8    28    29    1
     9    29    30    1
    10    21     1    1
    11     1     2   ar
    12     2     3   ar
    13     3     4   ar
    14     4     5   ar
    15     5     6   ar
    16     6     7    2
    17     6     8   ar
    18     8     9   ar
    19     9    10   ar
    20    10    11   ar
    21    11    12   ar
    22    12    13   ar
    23    13    14   ar
    24    14    15   ar
    25    15    16   ar
    26    16    17   ar
    27    17    18   ar
    28    18    19   ar
    29    30    26    1
    30    19     1   ar
    31    19     5   ar
    32    17     8   ar
    33    16    11   ar
    34    22    23    1
@<TRIPOS>MOLECULE
*****
 30 34 0 0 0
SMALL
GASTEIGER

@<TRIPOS>ATOM
      1 C         142.3122  139.5931  167.5077 C.ar    1  UNL1        0.0878
      2 C         142.8270  139.3209  168.8901 C.ar    1  UNL1        0.0091
      3 C         142.5337  140.2833  170.0026 C.ar    1  UNL1        0.0194
      4 C         141.7257  141.5179  169.7328 C.ar    1  UNL1        0.0844
      5 N         141.2109  141.7901  168.3505 N.ar    1  UNL1       -0.2576
      6 C         140.4028  143.0247  168.0807 C.ar    1  UNL1        0.2672
      7 O         140.1095  143.9871  169.1932 O.2     1  UNL1       -0.2665
      8 C         139.8880  143.2968  166.6983 C.ar    1  UNL1        0.0742
      9 C         139.0799  144.5314  166.4284 C.ar    1  UNL1        0.0063
     10 C         138.5651  144.8036  165.0461 C.ar    1  UNL1        0.0003
     11 C         138.8584  143.8412  163.9335 C.ar    1  UNL1        0.0015
     12 C         138.3436  144.1134  162.5512 C.ar    1  UNL1        0.0000
     13 C         138.6369  143.1510  161.4387 C.ar    1  UNL1        0.0000
     14 C         139.4449  141.9164  161.7085 C.ar    1  UNL1        0.0000
     15 C         139.9597  141.6442  163.0908 C.ar    1  UNL1        0.0015
     16 C         139.6665  142.6066  164.2033 C.ar    1  UNL1        0.0179
     17 C         140.1813  142.3344  165.5857 C.ar    1  UNL1        0.0875
     18 N         140.9893  141.0998  165.8556 N.ar    1  UNL1       -0.2276
     19 C         141.5041  140.8277  167.2379 C.ar    1  UNL1        0.1543
     20 O         143.9731  138.0280  166.2658 O.2     1  UNL1       -0.2700
     21 C         142.6055  138.6307  166.3952 C.2     1  UNL1        0.2488
     22 N         141.5313  138.2708  165.4121 N.am    1  UNL1       -0.2994
     23 H         140.6337  138.6663  165.4970 H       1  UNL1        0.1498
     24 C         141.8246  137.3083  164.2995 C.3     1  UNL1        0.1070
     25 C         141.8261  137.7842  162.8770 C.3     1  UNL1        0.0936
     26 N         140.5278  138.0175  162.1629 N.3     1  UNL1       -0.2712
     27 C         140.3720  138.4352  160.7306 C.3     1  UNL1        0.0722
     28 C         138.9053  138.5499  160.4381 C.3     1  UNL1        0.0188
     29 C         138.1546  138.2030  161.6896 C.3     1  UNL1        0.0188
     30 C         139.1574  137.8740  162.7555 C.3     1  UNL1        0.0722
@<TRIPOS>BOND
     1    20    21    2
     2    21    22   am
     3    22    24    1
     4    24    25    1
     5    25    26    1
     6    26    27    1
     7    27    28    1
     8    28    29    1
     9    29    30    1
    10    21     1    1
    11     1     2   ar
    12     2     3   ar
    13     3     4   ar
    14     4     5   ar
    15     5     6   ar
    16     6     7    2
    17     6     8   ar
    18     8     9   ar
    19     9    10   ar
    20    10    11   ar
    21    11    12   ar
    22    12    13   ar
    23    13    14   ar
    24    14    15   ar
    25    15    16   ar
    26    16    17   ar
    27    17    18   ar
    28    18    19   ar
    29    30    26    1
    30    19     1   ar
    31    19     5   ar
    32    17     8   ar
    33    16    11   ar
    34    22    23    1
@<TRIPOS>MOLECULE
*****
 30 34 0 0 0
SMALL
GASTEIGER

@<TRIPOS>ATOM
      1 C         139.6547  142.7587  161.1555 C.ar    1  UNL1        0.0878
      2 C         139.6836  143.4849  159.8432 C.ar    1  UNL1        0.0091
      3 C         140.8010  144.4379  159.5380 C.ar    1  UNL1        0.0194
      4 C         141.8895  144.6648  160.5449 C.ar    1  UNL1        0.0844
      5 N         141.8605  143.9386  161.8570 N.ar    1  UNL1       -0.2576
      6 C         142.9490  144.1654  162.8639 C.ar    1  UNL1        0.2672
      7 O         144.0664  145.1184  162.5586 O.2     1  UNL1       -0.2665
      8 C         142.9200  143.4392  164.1761 C.ar    1  UNL1        0.0742
      9 C         144.0085  143.6660  165.1830 C.ar    1  UNL1        0.0063
     10 C         143.9796  142.9399  166.4952 C.ar    1  UNL1        0.0003
     11 C         142.8621  141.9868  166.8005 C.ar    1  UNL1        0.0015
     12 C         142.8332  141.2607  168.1127 C.ar    1  UNL1        0.0000
     13 C         141.7159  140.3077  168.4179 C.ar    1  UNL1        0.0000
     14 C         140.6274  140.0809  167.4111 C.ar    1  UNL1        0.0000
     15 C         140.6563  140.8070  166.0989 C.ar    1  UNL1        0.0015
     16 C         141.7737  141.7600  165.7936 C.ar    1  UNL1        0.0179
     17 C         141.8027  142.4862  164.4814 C.ar    1  UNL1        0.0875
     18 N         140.7142  142.2594  163.4745 N.ar    1  UNL1       -0.2276
     19 C         140.7431  142.9855  162.1624 C.ar    1  UNL1        0.1543
     20 O         137.3364  142.2782  162.2255 O.2     1  UNL1       -0.2700
     21 C         138.5373  141.8057  161.4607 C.2     1  UNL1        0.2488
     22 N         138.6207  140.3803  161.0013 N.am    1  UNL1       -0.2994
     23 H         139.4088  140.0702  160.4994 H       1  UNL1        0.1498
     24 C         137.5033  139.4273  161.3066 C.3     1  UNL1        0.1070
     25 C         137.8108  138.0420  161.7930 C.3     1  UNL1        0.0936
     26 N         138.9654  137.8125  162.7225 N.3     1  UNL1       -0.2712
     27 C         140.3946  137.6032  162.3183 C.3     1  UNL1        0.0722
     28 C         141.2061  137.4134  163.5655 C.3     1  UNL1        0.0188
     29 C         140.2782  137.5055  164.7406 C.3     1  UNL1        0.0188
     30 C         138.8934  137.7522  164.2196 C.3     1  UNL1        0.0722
@<TRIPOS>BOND
     1    20    21    2
     2    21    22   am
     3    22    24    1
     4    24    25    1
     5    25    26    1
     6    26    27    1
     7    27    28    1
     8    28    29    1
     9    29    30    1
    10    21     1    1
    11     1     2   ar
    12     2     3   ar
    13     3     4   ar
    14     4     5   ar
    15     5     6   ar
    16     6     7    2
    17     6     8   ar
    18     8     9   ar
    19     9    10   ar
    20    10    11   ar
    21    11    12   ar
    22    12    13   ar
    23    13    14   ar
    24    14    15   ar
    25    15    16   ar
    26    16    17   ar
    27    17    18   ar
    28    18    19   ar
    29    30    26    1
    30    19     1   ar
    31    19     5   ar
    32    17     8   ar
    33    16    11   ar
    34    22    23    1
@<TRIPOS>MOLECULE
*****
 30 34 0 0 0
SMALL
GASTEIGER

@<TRIPOS>ATOM
      1 C         143.4316  142.0385  163.7326 C.ar    1  UNL1        0.0878
      2 C         144.1909  141.4219  162.5953 C.ar    1  UNL1        0.0091
      3 C         144.7340  140.0296  162.7235 C.ar    1  UNL1        0.0194
      4 C         144.5178  139.2538  163.9890 C.ar    1  UNL1        0.0844
      5 N         143.7586  139.8703  165.1263 N.ar    1  UNL1       -0.2576
      6 C         143.5424  139.0945  166.3917 C.ar    1  UNL1        0.2672
      7 O         144.0855  137.7022  166.5199 O.2     1  UNL1       -0.2665
      8 C         142.7831  139.7111  167.5290 C.ar    1  UNL1        0.0742
      9 C         142.5669  138.9352  168.7945 C.ar    1  UNL1        0.0063
     10 C         141.8077  139.5517  169.9317 C.ar    1  UNL1        0.0003
     11 C         141.2646  140.9441  169.8036 C.ar    1  UNL1        0.0015
     12 C         140.5053  141.5606  170.9408 C.ar    1  UNL1        0.0000
     13 C         139.9622  142.9530  170.8126 C.ar    1  UNL1        0.0000
     14 C         140.1784  143.7288  169.5472 C.ar    1  UNL1        0.0000
     15 C         140.9377  143.1123  168.4099 C.ar    1  UNL1        0.0015
     16 C         141.4807  141.7199  168.5381 C.ar    1  UNL1        0.0179
     17 C         142.2400  141.1034  167.4008 C.ar    1  UNL1        0.0875
     18 N         142.4562  141.8792  166.1354 N.ar    1  UNL1       -0.2276
     19 C         143.2155  141.2627  164.9981 C.ar    1  UNL1        0.1543
     20 O         143.4342  144.5310  164.4658 O.2     1  UNL1       -0.2700
     21 C         142.8886  143.4308  163.6044 C.2     1  UNL1        0.2488
     22 N         141.7998  143.7230  162.6149 N.am    1  UNL1       -0.2994
     23 H         141.4417  143.0010  162.0495 H       1  UNL1        0.1498
     24 C         141.2567  145.1154  162.4867 C.3     1  UNL1        0.1070
     25 C         139.7851  145.3633  162.6378 C.3     1  UNL1        0.0936
     26 N         138.8841  144.2626  163.1140 N.3     1  UNL1       -0.2712
     27 C         138.1919  143.2527  162.2474 C.3     1  UNL1        0.0722
     28 C         137.3971  142.3446  163.1383 C.3     1  UNL1        0.0188
     29 C         137.5982  142.7932  164.5555 C.3     1  UNL1        0.0188
     30 C         138.5172  143.9787  164.5404 C.3     1  UNL1        0.0722
@<TRIPOS>BOND
     1    20    21    2
     2    21    22   am
     3    22    24    1
     4    24    25    1
     5    25    26    1
     6    26    27    1
     7    27    28    1
     8    28    29    1
     9    29    30    1
    10    21     1    1
    11     1     2   ar
    12     2     3   ar
    13     3     4   ar
    14     4     5   ar
    15     5     6   ar
    16     6     7    2
    17     6     8   ar
    18     8     9   ar
    19     9    10   ar
    20    10    11   ar
    21    11    12   ar
    22    12    13   ar
    23    13    14   ar
    24    14    15   ar
    25    15    16   ar
    26    16    17   ar
    27    17    18   ar
    28    18    19   ar
    29    30    26    1
    30    19     1   ar
    31    19     5   ar
    32    17     8   ar
    33    16    11   ar
    34    22    23    1
@<TRIPOS>MOLECULE
*****
 30 34 0 0 0
SMALL
GASTEIGER

@<TRIPOS>ATOM
      1 C         141.9610  141.9686  162.1193 C.ar    1  UNL1        0.0878
      2 C         142.8518  142.5624  161.0686 C.ar    1  UNL1        0.0091
      3 C         144.0989  143.2937  161.4685 C.ar    1  UNL1        0.0194
      4 C         144.4553  143.4311  162.9191 C.ar    1  UNL1        0.0844
      5 N         143.5646  142.8373  163.9697 N.ar    1  UNL1       -0.2576
      6 C         143.9210  142.9747  165.4203 C.ar    1  UNL1        0.2672
      7 O         145.1681  143.7060  165.8201 O.2     1  UNL1       -0.2665
      8 C         143.0302  142.3809  166.4710 C.ar    1  UNL1        0.0742
      9 C         143.3866  142.5183  167.9215 C.ar    1  UNL1        0.0063
     10 C         142.4959  141.9245  168.9722 C.ar    1  UNL1        0.0003
     11 C         141.2487  141.1932  168.5724 C.ar    1  UNL1        0.0015
     12 C         140.3580  140.5993  169.6230 C.ar    1  UNL1        0.0000
     13 C         139.1109  139.8681  169.2232 C.ar    1  UNL1        0.0000
     14 C         138.7545  139.7306  167.7726 C.ar    1  UNL1        0.0000
     15 C         139.6452  140.3245  166.7219 C.ar    1  UNL1        0.0015
     16 C         140.8923  141.0557  167.1218 C.ar    1  UNL1        0.0179
     17 C         141.7831  141.6496  166.0711 C.ar    1  UNL1        0.0875
     18 N         141.4267  141.5122  164.6206 N.ar    1  UNL1       -0.2276
     19 C         142.3174  142.1060  163.5699 C.ar    1  UNL1        0.1543
     20 O         139.3800  141.6933  162.2322 O.2     1  UNL1       -0.2700
     21 C         140.7139  141.2373  161.7195 C.2     1  UNL1        0.2488
     22 N         140.8006  140.0501  160.8068 N.am    1  UNL1       -0.2994
     23 H         141.6760  139.7508  160.4702 H       1  UNL1        0.1498
     24 C         139.5534  139.3188  160.4069 C.3     1  UNL1        0.1070
     25 C         139.1761  138.0439  161.1015 C.3     1  UNL1        0.0936
     26 N         139.6838  137.7651  162.4851 N.3     1  UNL1       -0.2712
     27 C         141.0826  137.3615  162.8464 C.3     1  UNL1        0.0722
     28 C         141.1452  137.1878  164.3350 C.3     1  UNL1        0.0188
     29 C         139.7850  137.4842  164.8937 C.3     1  UNL1        0.0188
     30 C         138.8819  137.8409  163.7505 C.3     1  UNL1        0.0722
@<TRIPOS>BOND
     1    20    21    2
     2    21    22   am
     3    22    24    1
     4    24    25    1
     5    25    26    1
     6    26    27    1
     7    27    28    1
     8    28    29    1
     9    29    30    1
    10    21     1    1
    11     1     2   ar
    12     2     3   ar
    13     3     4   ar
    14     4     5   ar
    15     5     6   ar
    16     6     7    2
    17     6     8   ar
    18     8     9   ar
    19     9    10   ar
    20    10    11   ar
    21    11    12   ar
    22    12    13   ar
    23    13    14   ar
    24    14    15   ar
    25    15    16   ar
    26    16    17   ar
    27    17    18   ar
    28    18    19   ar
    29    30    26    1
    30    19     1   ar
    31    19     5   ar
    32    17     8   ar
    33    16    11   ar
    34    22    23    1
@<TRIPOS>MOLECULE
*****
 30 34 0 0 0
SMALL
GASTEIGER

@<TRIPOS>ATOM
      1 C         142.6177  143.1920  159.8904 C.ar    1  UNL1        0.0878
      2 C         142.4721  143.8049  158.5290 C.ar    1  UNL1        0.0091
      3 C         141.4322  144.8587  158.2883 C.ar    1  UNL1        0.0194
      4 C         140.5379  145.2997  159.4089 C.ar    1  UNL1        0.0844
      5 N         140.6834  144.6869  160.7702 N.ar    1  UNL1       -0.2576
      6 C         139.7891  145.1279  161.8908 C.ar    1  UNL1        0.2672
      7 O         138.7492  146.1817  161.6500 O.2     1  UNL1       -0.2665
      8 C         139.9348  144.5150  163.2522 C.ar    1  UNL1        0.0742
      9 C         139.0404  144.9560  164.3727 C.ar    1  UNL1        0.0063
     10 C         139.1860  144.3432  165.7341 C.ar    1  UNL1        0.0003
     11 C         140.2260  143.2894  165.9748 C.ar    1  UNL1        0.0015
     12 C         140.3716  142.6766  167.3362 C.ar    1  UNL1        0.0000
     13 C         141.4115  141.6228  167.5769 C.ar    1  UNL1        0.0000
     14 C         142.3058  141.1818  166.4563 C.ar    1  UNL1        0.0000
     15 C         142.1603  141.7946  165.0950 C.ar    1  UNL1        0.0015
     16 C         141.1203  142.8484  164.8543 C.ar    1  UNL1        0.0179
     17 C         140.9747  143.4612  163.4929 C.ar    1  UNL1        0.0875
     18 N         141.8690  143.0202  162.3723 N.ar    1  UNL1       -0.2276
     19 C         141.7234  143.6330  161.0110 C.ar    1  UNL1        0.1543
     20 O         145.0819  142.3844  159.7298 O.2     1  UNL1       -0.2700
     21 C         143.6577  142.1382  160.1312 C.2     1  UNL1        0.2488
     22 N         143.2734  140.8382  160.7733 N.am    1  UNL1       -0.2994
     23 H         142.3387  140.6766  161.0367 H       1  UNL1        0.1498
     24 C         144.3135  139.7843  161.0140 C.3     1  UNL1        0.1070
     25 C         143.8977  138.3878  161.3701 C.3     1  UNL1        0.0936
     26 N         142.8243  138.1627  162.3934 N.3     1  UNL1       -0.2712
     27 C         142.9454  138.4117  163.8676 C.3     1  UNL1        0.0722
     28 C         141.6373  138.0520  164.5075 C.3     1  UNL1        0.0188
     29 C         140.7077  137.5807  163.4287 C.3     1  UNL1        0.0188
     30 C         141.4413  137.6492  162.1221 C.3     1  UNL1        0.0722
@<TRIPOS>BOND
     1    20    21    2
     2    21    22   am
     3    22    24    1
     4    24    25    1
     5    25    26    1
     6    26    27    1
     7    27    28    1
     8    28    29    1
     9    29    30    1
    10    21     1    1
    11     1     2   ar
    12     2     3   ar
    13     3     4   ar
    14     4     5   ar
    15     5     6   ar
    16     6     7    2
    17     6     8   ar
    18     8     9   ar
    19     9    10   ar
    20    10    11   ar
    21    11    12   ar
    22    12    13   ar
    23    13    14   ar
    24    14    15   ar
    25    15    16   ar
    26    16    17   ar
    27    17    18   ar
    28    18    19   ar
    29    30    26    1
    30    19     1   ar
    31    19     5   ar
    32    17     8   ar
    33    16    11   ar
    34    22    23    1
@<TRIPOS>MOLECULE
*****
 30 34 0 0 0
SMALL
GASTEIGER

@<TRIPOS>ATOM
      1 C         143.1146  139.4777  165.7792 C.ar    1  UNL1        0.0878
      2 C         143.3992  138.6713  167.0115 C.ar    1  UNL1        0.0091
      3 C         142.7446  139.0323  168.3119 C.ar    1  UNL1        0.0194
      4 C         141.8053  140.1999  168.3800 C.ar    1  UNL1        0.0844
      5 N         141.5207  141.0063  167.1478 N.ar    1  UNL1       -0.2576
      6 C         140.5814  142.1739  167.2159 C.ar    1  UNL1        0.2672
      7 O         139.9268  142.5349  168.5163 O.2     1  UNL1       -0.2665
      8 C         140.2968  142.9803  165.9835 C.ar    1  UNL1        0.0742
      9 C         139.3575  144.1479  166.0517 C.ar    1  UNL1        0.0063
     10 C         139.0728  144.9543  164.8194 C.ar    1  UNL1        0.0003
     11 C         139.7275  144.5933  163.5189 C.ar    1  UNL1        0.0015
     12 C         139.4428  145.3998  162.2866 C.ar    1  UNL1        0.0000
     13 C         140.0974  145.0387  160.9862 C.ar    1  UNL1        0.0000
     14 C         141.0367  143.8711  160.9181 C.ar    1  UNL1        0.0000
     15 C         141.3213  143.0647  162.1504 C.ar    1  UNL1        0.0015
     16 C         140.6667  143.4258  163.4508 C.ar    1  UNL1        0.0179
     17 C         140.9514  142.6193  164.6831 C.ar    1  UNL1        0.0875
     18 N         141.8906  141.4517  164.6150 N.ar    1  UNL1       -0.2276
     19 C         142.1753  140.6453  165.8473 C.ar    1  UNL1        0.1543
     20 O         145.2557  139.2472  164.3257 O.2     1  UNL1       -0.2700
     21 C         143.7692  139.1167  164.4788 C.2     1  UNL1        0.2488
     22 N         142.9374  138.6251  163.3314 N.am    1  UNL1       -0.2994
     23 H         141.9617  138.5394  163.4319 H       1  UNL1        0.1498
     24 C         143.5920  138.2640  162.0310 C.3     1  UNL1        0.1070
     25 C         143.2170  138.9928  160.7747 C.3     1  UNL1        0.0936
     26 N         143.7193  140.3861  160.5375 N.3     1  UNL1       -0.2712
     27 C         143.5705  141.1730  159.2691 C.3     1  UNL1        0.0722
     28 C         144.2179  142.5104  159.4747 C.3     1  UNL1        0.0188
     29 C         144.7668  142.5500  160.8701 C.3     1  UNL1        0.0188
     30 C         144.4587  141.2371  161.5269 C.3     1  UNL1        0.0722
@<TRIPOS>BOND
     1    20    21    2
     2    21    22   am
     3    22    24    1
     4    24    25    1
     5    25    26    1
     6    26    27    1
     7    27    28    1
     8    28    29    1
     9    29    30    1
    10    21     1    1
    11     1     2   ar
    12     2     3   ar
    13     3     4   ar
    14     4     5   ar
    15     5     6   ar
    16     6     7    2
    17     6     8   ar
    18     8     9   ar
    19     9    10   ar
    20    10    11   ar
    21    11    12   ar
    22    12    13   ar
    23    13    14   ar
    24    14    15   ar
    25    15    16   ar
    26    16    17   ar
    27    17    18   ar
    28    18    19   ar
    29    30    26    1
    30    19     1   ar
    31    19     5   ar
    32    17     8   ar
    33    16    11   ar
    34    22    23    1
@<TRIPOS>MOLECULE
*****
 30 34 0 0 0
SMALL
GASTEIGER

@<TRIPOS>ATOM
      1 C         143.6686  140.2724  162.6435 C.ar    1  UNL1        0.0878
      2 C         144.9133  140.9690  162.1791 C.ar    1  UNL1        0.0091
      3 C         145.5623  142.0043  163.0491 C.ar    1  UNL1        0.0194
      4 C         144.9666  142.3431  164.3834 C.ar    1  UNL1        0.0844
      5 N         143.7220  141.6466  164.8478 N.ar    1  UNL1       -0.2576
      6 C         143.1264  141.9854  166.1821 C.ar    1  UNL1        0.2672
      7 O         143.7754  143.0208  167.0520 O.2     1  UNL1       -0.2665
      8 C         141.8817  141.2888  166.6464 C.ar    1  UNL1        0.0742
      9 C         141.2860  141.6276  167.9808 C.ar    1  UNL1        0.0063
     10 C         140.0414  140.9311  168.4452 C.ar    1  UNL1        0.0003
     11 C         139.3924  139.8957  167.5752 C.ar    1  UNL1        0.0015
     12 C         138.1477  139.1992  168.0396 C.ar    1  UNL1        0.0000
     13 C         137.4988  138.1638  167.1696 C.ar    1  UNL1        0.0000
     14 C         138.0944  137.8250  165.8353 C.ar    1  UNL1        0.0000
     15 C         139.3390  138.5215  165.3709 C.ar    1  UNL1        0.0015
     16 C         139.9880  139.5569  166.2409 C.ar    1  UNL1        0.0179
     17 C         141.2327  140.2535  165.7765 C.ar    1  UNL1        0.0875
     18 N         141.8283  139.9147  164.4422 N.ar    1  UNL1       -0.2276
     19 C         143.0730  140.6112  163.9778 C.ar    1  UNL1        0.1543
     20 O         142.7954  137.8499  162.2986 O.2     1  UNL1       -0.2700
     21 C         143.0196  139.2370  161.7735 C.2     1  UNL1        0.2488
     22 N         142.5949  139.5888  160.3786 N.am    1  UNL1       -0.2994
     23 H         142.7421  140.4992  160.0340 H       1  UNL1        0.1498
     24 C         141.9459  138.5533  159.5087 C.3     1  UNL1        0.1070
     25 C         140.5494  138.7660  159.0042 C.3     1  UNL1        0.0936
     26 N         139.4177  138.9284  159.9753 N.3     1  UNL1       -0.2712
     27 C         139.2106  138.1314  161.2290 C.3     1  UNL1        0.0722
     28 C         137.9594  138.6266  161.8917 C.3     1  UNL1        0.0188
     29 C         137.3932  139.7298  161.0475 C.3     1  UNL1        0.0188
     30 C         138.2945  139.9162  159.8631 C.3     1  UNL1        0.0722
@<TRIPOS>BOND
     1    20    21    2
     2    21    22   am
     3    22    24    1
     4    24    25    1
     5    25    26    1
     6    26    27    1
     7    27    28    1
     8    28    29    1
     9    29    30    1
    10    21     1    1
    11     1     2   ar
    12     2     3   ar
    13     3     4   ar
    14     4     5   ar
    15     5     6   ar
    16     6     7    2
    17     6     8   ar
    18     8     9   ar
    19     9    10   ar
    20    10    11   ar
    21    11    12   ar
    22    12    13   ar
    23    13    14   ar
    24    14    15   ar
    25    15    16   ar
    26    16    17   ar
    27    17    18   ar
    28    18    19   ar
    29    30    26    1
    30    19     1   ar
    31    19     5   ar
    32    17     8   ar
    33    16    11   ar
    34    22    23    1
