@<TRIPOS>MOLECULE
*****
 33 36 0 0 0
SMALL
GASTEIGER

@<TRIPOS>ATOM
      1 N         138.3636  138.8996  167.4901 N.pl3   1  UNL1       -0.3414
      2 C         138.9786  138.7924  166.1262 C.ar    1  UNL1        0.1433
      3 N         138.3306  137.9395  165.0762 N.ar    1  UNL1       -0.2265
      4 C         138.9456  137.8324  163.7122 C.ar    1  UNL1        0.1193
      5 C         140.2086  138.5781  163.3983 C.ar    1  UNL1        0.1005
      6 N         140.8566  139.4310  164.4483 N.ar    1  UNL1       -0.2409
      7 C         140.2416  139.5382  165.8123 C.ar    1  UNL1        0.1138
      8 H         137.5346  138.4101  167.6961 H       1  UNL1        0.1438
      9 H         138.7890  139.4594  168.1793 H       1  UNL1        0.1438
     10 C         140.8236  138.4710  162.0344 C.ar    1  UNL1        0.0192
     11 C         140.0537  138.9182  160.8273 C.ar    1  UNL1        0.0017
     12 C         140.6687  138.8111  159.4633 C.ar    1  UNL1        0.0046
     13 C         142.0535  138.2566  159.3065 C.ar    1  UNL1        0.0536
     14 C         142.8234  137.8094  160.5136 C.ar    1  UNL1        0.0046
     15 C         142.2085  137.9165  161.8775 C.ar    1  UNL1        0.0017
     16 C         142.6685  138.1495  157.9426 C.2     1  UNL1        0.2492
     17 O         142.4861  136.8996  157.1337 O.2     1  UNL1       -0.2699
     18 N         143.4660  139.2922  157.3875 N.am    1  UNL1       -0.2709
     19 C         143.6485  140.5423  158.1964 C.3     1  UNL1        0.1258
     20 C         144.4459  141.6850  157.6414 C.3     1  UNL1        0.1637
     21 O         145.0609  141.5779  156.2775 O.3     1  UNL1       -0.3501
     22 C         144.8784  140.3279  155.4686 C.3     1  UNL1        0.1637
     23 C         144.0810  139.1851  156.0236 C.3     1  UNL1        0.1258
     24 C         140.8898  140.3911  166.8623 C.ar    1  UNL1        0.0395
     25 C         140.3772  141.7761  167.1250 C.ar    1  UNL1        0.0046
     26 C         141.0252  142.6290  168.1750 C.ar    1  UNL1        0.0232
     27 C         142.1859  142.0970  168.9623 C.ar    1  UNL1        0.1526
     28 N         142.6985  140.7120  168.6995 N.ar    1  UNL1       -0.2398
     29 C         142.0504  139.8591  167.6495 C.ar    1  UNL1        0.1003
     30 C         142.8340  142.9499  170.0123 C.3     1  UNL1        0.4348
     31 F         143.4820  143.8029  171.0622 F       1  UNL1       -0.1644
     32 F         141.6020  143.8030  170.0796 F       1  UNL1       -0.1644
     33 F         144.0659  142.0969  169.9449 F       1  UNL1       -0.1644
@<TRIPOS>BOND
     1     1     2    1
     2     2     3   ar
     3     3     4   ar
     4     4     5   ar
     5     5    10    1
     6    10    11   ar
     7    11    12   ar
     8    12    13   ar
     9    13    16    1
    10    16    17    2
    11    16    18   am
    12    18    19    1
    13    19    20    1
    14    20    21    1
    15    21    22    1
    16    22    23    1
    17    13    14   ar
    18    14    15   ar
    19     5     6   ar
    20     6     7   ar
    21     7    24    1
    22    24    25   ar
    23    25    26   ar
    24    26    27   ar
    25    27    30    1
    26    30    31    1
    27    30    32    1
    28    30    33    1
    29    27    28   ar
    30    28    29   ar
    31     7     2   ar
    32    29    24   ar
    33    15    10   ar
    34    23    18    1
    35     1     8    1
    36     1     9    1
@<TRIPOS>MOLECULE
*****
 33 36 0 0 0
SMALL
GASTEIGER

@<TRIPOS>ATOM
      1 N         138.5089  138.8519  167.1858 N.pl3   1  UNL1       -0.3414
      2 C         139.1466  138.8459  165.8281 C.ar    1  UNL1        0.1433
      3 N         138.5467  138.0304  164.7213 N.ar    1  UNL1       -0.2265
      4 C         139.1844  138.0244  163.3636 C.ar    1  UNL1        0.1193
      5 C         140.4219  138.8340  163.1127 C.ar    1  UNL1        0.1005
      6 N         141.0218  139.6495  164.2195 N.ar    1  UNL1       -0.2409
      7 C         140.3841  139.6555  165.5772 C.ar    1  UNL1        0.1138
      8 H         137.6966  138.3205  167.3505 H       1  UNL1        0.1438
      9 H         138.9026  139.3871  167.9122 H       1  UNL1        0.1438
     10 C         141.0596  138.8281  161.7550 C.ar    1  UNL1        0.0192
     11 C         142.1431  137.8399  161.4396 C.ar    1  UNL1        0.0017
     12 C         142.7808  137.8339  160.0820 C.ar    1  UNL1        0.0046
     13 C         142.3350  138.8162  159.0397 C.ar    1  UNL1        0.0536
     14 C         141.2515  139.8044  159.3551 C.ar    1  UNL1        0.0046
     15 C         140.6138  139.8103  160.7128 C.ar    1  UNL1        0.0017
     16 C         142.9727  138.8103  157.6820 C.2     1  UNL1        0.2492
     17 O         144.2581  139.5488  157.4539 O.2     1  UNL1       -0.2699
     18 N         142.3249  138.0658  156.5524 N.am    1  UNL1       -0.2709
     19 C         141.0393  137.3272  156.7804 C.3     1  UNL1        0.1258
     20 C         140.3915  136.5827  155.6508 C.3     1  UNL1        0.1637
     21 O         141.0292  136.5768  154.2931 O.3     1  UNL1       -0.3501
     22 C         142.3147  137.3153  154.0650 C.3     1  UNL1        0.1637
     23 C         142.9626  138.0598  155.1947 C.3     1  UNL1        0.1258
     24 C         140.9841  140.4711  166.6840 C.ar    1  UNL1        0.0395
     25 C         140.4504  141.8413  166.9800 C.ar    1  UNL1        0.0046
     26 C         141.0503  142.6569  168.0868 C.ar    1  UNL1        0.0232
     27 C         142.1839  142.1022  168.8976 C.ar    1  UNL1        0.1526
     28 N         142.7175  140.7319  168.6017 N.ar    1  UNL1       -0.2398
     29 C         142.1175  139.9164  167.4948 C.ar    1  UNL1        0.1003
     30 C         142.7837  142.9178  170.0044 C.3     1  UNL1        0.4348
     31 F         143.3836  143.7334  171.1111 F       1  UNL1       -0.1644
     32 F         141.5593  143.7838  170.0299 F       1  UNL1       -0.1644
     33 F         144.0082  142.0518  169.9789 F       1  UNL1       -0.1644
@<TRIPOS>BOND
     1     1     2    1
     2     2     3   ar
     3     3     4   ar
     4     4     5   ar
     5     5    10    1
     6    10    11   ar
     7    11    12   ar
     8    12    13   ar
     9    13    16    1
    10    16    17    2
    11    16    18   am
    12    18    19    1
    13    19    20    1
    14    20    21    1
    15    21    22    1
    16    22    23    1
    17    13    14   ar
    18    14    15   ar
    19     5     6   ar
    20     6     7   ar
    21     7    24    1
    22    24    25   ar
    23    25    26   ar
    24    26    27   ar
    25    27    30    1
    26    30    31    1
    27    30    32    1
    28    30    33    1
    29    27    28   ar
    30    28    29   ar
    31     7     2   ar
    32    29    24   ar
    33    15    10   ar
    34    23    18    1
    35     1     8    1
    36     1     9    1
@<TRIPOS>MOLECULE
*****
 33 36 0 0 0
SMALL
GASTEIGER

@<TRIPOS>ATOM
      1 N         143.3348  138.8729  155.5778 N.pl3   1  UNL1       -0.3414
      2 C         143.3160  138.8490  157.0774 C.ar    1  UNL1        0.1433
      3 N         143.7236  140.0669  157.8522 N.ar    1  UNL1       -0.2265
      4 C         143.7049  140.0430  159.3519 C.ar    1  UNL1        0.1193
      5 C         143.2784  138.8010  160.0768 C.ar    1  UNL1        0.1005
      6 N         142.8708  137.5830  159.3021 N.ar    1  UNL1       -0.2409
      7 C         142.8895  137.6070  157.8024 C.ar    1  UNL1        0.1138
      8 H         143.6146  139.6881  155.1019 H       1  UNL1        0.1438
      9 H         143.0672  138.0735  155.0693 H       1  UNL1        0.1438
     10 C         143.2597  138.7770  161.5765 C.ar    1  UNL1        0.0192
     11 C         144.2504  139.5936  162.3521 C.ar    1  UNL1        0.0017
     12 C         144.2317  139.5696  163.8518 C.ar    1  UNL1        0.0046
     13 C         143.2221  138.7291  164.5759 C.ar    1  UNL1        0.0536
     14 C         142.2313  137.9126  163.8003 C.ar    1  UNL1        0.0046
     15 C         142.2501  137.9366  162.3006 C.ar    1  UNL1        0.0017
     16 C         143.2033  138.7051  166.0756 C.2     1  UNL1        0.2492
     17 O         144.1416  137.8047  166.8231 O.2     1  UNL1       -0.2699
     18 N         142.2462  139.5815  166.8278 N.am    1  UNL1       -0.2709
     19 C         141.3079  140.4820  166.0803 C.3     1  UNL1        0.1258
     20 C         140.3508  141.3584  166.8324 C.3     1  UNL1        0.1637
     21 O         140.3320  141.3344  168.3321 O.3     1  UNL1       -0.3501
     22 C         141.2703  140.4341  169.0796 C.3     1  UNL1        0.1637
     23 C         142.2275  139.5576  168.3275 C.3     1  UNL1        0.1258
     24 C         142.4819  136.3889  157.0277 C.ar    1  UNL1        0.0395
     25 C         143.2405  135.1056  157.1940 C.ar    1  UNL1        0.0046
     26 C         142.8329  133.8876  156.4193 C.ar    1  UNL1        0.0232
     27 C         141.6665  133.9528  155.4783 C.ar    1  UNL1        0.1526
     28 N         140.9079  135.2360  155.3120 N.ar    1  UNL1       -0.2398
     29 C         141.3156  136.4541  156.0867 C.ar    1  UNL1        0.1003
     30 C         141.2589  132.7347  154.7036 C.3     1  UNL1        0.4348
     31 F         140.8513  131.5167  153.9290 F       1  UNL1       -0.1644
     32 F         140.8492  133.6042  153.5521 F       1  UNL1       -0.1644
     33 F         141.6686  131.8652  155.8552 F       1  UNL1       -0.1644
@<TRIPOS>BOND
     1     1     2    1
     2     2     3   ar
     3     3     4   ar
     4     4     5   ar
     5     5    10    1
     6    10    11   ar
     7    11    12   ar
     8    12    13   ar
     9    13    16    1
    10    16    17    2
    11    16    18   am
    12    18    19    1
    13    19    20    1
    14    20    21    1
    15    21    22    1
    16    22    23    1
    17    13    14   ar
    18    14    15   ar
    19     5     6   ar
    20     6     7   ar
    21     7    24    1
    22    24    25   ar
    23    25    26   ar
    24    26    27   ar
    25    27    30    1
    26    30    31    1
    27    30    32    1
    28    30    33    1
    29    27    28   ar
    30    28    29   ar
    31     7     2   ar
    32    29    24   ar
    33    15    10   ar
    34    23    18    1
    35     1     8    1
    36     1     9    1
@<TRIPOS>MOLECULE
*****
 33 36 0 0 0
SMALL
GASTEIGER

@<TRIPOS>ATOM
      1 N         141.1058  136.6349  164.4737 N.pl3   1  UNL1       -0.3414
      2 C         141.1356  137.8102  163.5422 C.ar    1  UNL1        0.1433
      3 N         141.2692  137.5925  162.0641 N.ar    1  UNL1       -0.2265
      4 C         141.2990  138.7678  161.1326 C.ar    1  UNL1        0.1193
      5 C         141.1952  140.1608  161.6791 C.ar    1  UNL1        0.1005
      6 N         141.0616  140.3785  163.1572 N.ar    1  UNL1       -0.2409
      7 C         141.0318  139.2032  164.0887 C.ar    1  UNL1        0.1138
      8 H         141.1739  135.7206  164.1150 H       1  UNL1        0.1438
      9 H         141.0181  136.7778  165.4438 H       1  UNL1        0.1438
     10 C         141.2251  141.3361  160.7476 C.ar    1  UNL1        0.0192
     11 C         140.5709  142.6258  161.1461 C.ar    1  UNL1        0.0017
     12 C         140.6008  143.8011  160.2145 C.ar    1  UNL1        0.0046
     13 C         141.2847  143.6867  158.8845 C.ar    1  UNL1        0.0536
     14 C         141.9389  142.3971  158.4860 C.ar    1  UNL1        0.0046
     15 C         141.9090  141.2218  159.4175 C.ar    1  UNL1        0.0017
     16 C         141.3146  144.8620  157.9530 C.2     1  UNL1        0.2492
     17 O         142.4011  145.8888  158.0755 O.2     1  UNL1       -0.2699
     18 N         140.2578  145.0106  156.8989 N.am    1  UNL1       -0.2709
     19 C         139.1711  143.9838  156.7763 C.3     1  UNL1        0.1258
     20 C         138.1144  144.1324  155.7222 C.3     1  UNL1        0.1637
     21 O         138.1442  145.3077  154.7906 O.3     1  UNL1       -0.3501
     22 C         139.2308  146.3344  154.9132 C.3     1  UNL1        0.1637
     23 C         140.2876  146.1859  155.9673 C.3     1  UNL1        0.1258
     24 C         140.8982  139.4209  165.5668 C.ar    1  UNL1        0.0395
     25 C         139.5419  139.6192  166.1761 C.ar    1  UNL1        0.0046
     26 C         139.4082  139.8370  167.6541 C.ar    1  UNL1        0.0232
     27 C         140.6309  139.8564  168.5230 C.ar    1  UNL1        0.1526
     28 N         141.9871  139.6581  167.9137 N.ar    1  UNL1       -0.2398
     29 C         142.1208  139.4404  166.4356 C.ar    1  UNL1        0.1003
     30 C         140.4972  140.0742  170.0011 C.3     1  UNL1        0.4348
     31 F         140.3635  140.2919  171.4791 F       1  UNL1       -0.1644
     32 F         139.2115  140.8132  169.7759 F       1  UNL1       -0.1644
     33 F         141.7829  139.3351  170.2262 F       1  UNL1       -0.1644
@<TRIPOS>BOND
     1     1     2    1
     2     2     3   ar
     3     3     4   ar
     4     4     5   ar
     5     5    10    1
     6    10    11   ar
     7    11    12   ar
     8    12    13   ar
     9    13    16    1
    10    16    17    2
    11    16    18   am
    12    18    19    1
    13    19    20    1
    14    20    21    1
    15    21    22    1
    16    22    23    1
    17    13    14   ar
    18    14    15   ar
    19     5     6   ar
    20     6     7   ar
    21     7    24    1
    22    24    25   ar
    23    25    26   ar
    24    26    27   ar
    25    27    30    1
    26    30    31    1
    27    30    32    1
    28    30    33    1
    29    27    28   ar
    30    28    29   ar
    31     7     2   ar
    32    29    24   ar
    33    15    10   ar
    34    23    18    1
    35     1     8    1
    36     1     9    1
@<TRIPOS>MOLECULE
*****
 33 36 0 0 0
SMALL
GASTEIGER

@<TRIPOS>ATOM
      1 N         138.1550  144.7493  165.4467 N.pl3   1  UNL1       -0.3414
      2 C         139.1149  144.3464  164.3668 C.ar    1  UNL1        0.1433
      3 N         139.1518  145.1065  163.0742 N.ar    1  UNL1       -0.2265
      4 C         140.1117  144.7036  161.9943 C.ar    1  UNL1        0.1193
      5 C         141.0348  143.5405  162.2070 C.ar    1  UNL1        0.1005
      6 N         140.9979  142.7804  163.4995 N.ar    1  UNL1       -0.2409
      7 C         140.0380  143.1834  164.5794 C.ar    1  UNL1        0.1138
      8 H         137.5492  145.5127  165.3071 H       1  UNL1        0.1438
      9 H         138.1308  144.2504  166.2951 H       1  UNL1        0.1438
     10 C         141.9947  143.1376  161.1271 C.ar    1  UNL1        0.0192
     11 C         141.8982  143.7618  159.7666 C.ar    1  UNL1        0.0017
     12 C         142.8581  143.3589  158.6867 C.ar    1  UNL1        0.0046
     13 C         143.9145  142.3317  158.9672 C.ar    1  UNL1        0.0536
     14 C         144.0111  141.7075  160.3277 C.ar    1  UNL1        0.0046
     15 C         143.0511  142.1104  161.4076 C.ar    1  UNL1        0.0017
     16 C         144.8745  141.9288  157.8873 C.2     1  UNL1        0.2492
     17 O         146.1461  142.6991  157.6886 O.2     1  UNL1       -0.2699
     18 N         144.5627  140.7557  157.0062 N.am    1  UNL1       -0.2709
     19 C         143.2910  139.9853  157.2049 C.3     1  UNL1        0.1258
     20 C         142.9792  138.8122  156.3238 C.3     1  UNL1        0.1637
     21 O         143.9392  138.4093  155.2439 O.3     1  UNL1       -0.3501
     22 C         145.2108  139.1795  155.0451 C.3     1  UNL1        0.1637
     23 C         145.5226  140.3527  155.9263 C.3     1  UNL1        0.1258
     24 C         140.0011  142.4232  165.8721 C.ar    1  UNL1        0.0395
     25 C         140.6091  143.0162  167.1085 C.ar    1  UNL1        0.0046
     26 C         140.5723  142.2561  168.4011 C.ar    1  UNL1        0.0232
     27 C         139.9275  140.9029  168.4573 C.ar    1  UNL1        0.1526
     28 N         139.3194  140.3099  167.2209 N.ar    1  UNL1       -0.2398
     29 C         139.3563  141.0701  165.9283 C.ar    1  UNL1        0.1003
     30 C         139.8906  140.1428  169.7499 C.3     1  UNL1        0.4348
     31 F         139.8538  139.3827  171.0425 F       1  UNL1       -0.1644
     32 F         141.2376  139.5577  169.4442 F       1  UNL1       -0.1644
     33 F         138.5437  140.7279  170.0556 F       1  UNL1       -0.1644
@<TRIPOS>BOND
     1     1     2    1
     2     2     3   ar
     3     3     4   ar
     4     4     5   ar
     5     5    10    1
     6    10    11   ar
     7    11    12   ar
     8    12    13   ar
     9    13    16    1
    10    16    17    2
    11    16    18   am
    12    18    19    1
    13    19    20    1
    14    20    21    1
    15    21    22    1
    16    22    23    1
    17    13    14   ar
    18    14    15   ar
    19     5     6   ar
    20     6     7   ar
    21     7    24    1
    22    24    25   ar
    23    25    26   ar
    24    26    27   ar
    25    27    30    1
    26    30    31    1
    27    30    32    1
    28    30    33    1
    29    27    28   ar
    30    28    29   ar
    31     7     2   ar
    32    29    24   ar
    33    15    10   ar
    34    23    18    1
    35     1     8    1
    36     1     9    1
@<TRIPOS>MOLECULE
*****
 33 36 0 0 0
SMALL
GASTEIGER

@<TRIPOS>ATOM
      1 N         144.0034  137.6099  154.6811 N.pl3   1  UNL1       -0.3414
      2 C         143.6691  138.0622  156.0716 C.ar    1  UNL1        0.1433
      3 N         144.0224  139.4513  156.5137 N.ar    1  UNL1       -0.2265
      4 C         143.6881  139.9036  157.9043 C.ar    1  UNL1        0.1193
      5 C         143.0005  138.9669  158.8527 C.ar    1  UNL1        0.1005
      6 N         142.6472  137.5777  158.4106 N.ar    1  UNL1       -0.2409
      7 C         142.9815  137.1254  157.0200 C.ar    1  UNL1        0.1138
      8 H         144.4548  138.2247  154.0586 H       1  UNL1        0.1438
      9 H         143.7715  136.6981  154.3909 H       1  UNL1        0.1438
     10 C         142.6661  139.4192  160.2433 C.ar    1  UNL1        0.0192
     11 C         143.5412  140.4207  160.9369 C.ar    1  UNL1        0.0017
     12 C         143.2069  140.8730  162.3274 C.ar    1  UNL1        0.0046
     13 C         141.9975  140.3238  163.0244 C.ar    1  UNL1        0.0536
     14 C         141.1224  139.3223  162.3307 C.ar    1  UNL1        0.0046
     15 C         141.4568  138.8700  160.9402 C.ar    1  UNL1        0.0017
     16 C         141.6632  140.7762  164.4149 C.2     1  UNL1        0.2492
     17 O         140.7637  141.9584  164.6231 O.2     1  UNL1       -0.2699
     18 N         142.2283  140.0463  165.5972 N.am    1  UNL1       -0.2709
     19 C         143.1277  138.8640  165.3890 C.3     1  UNL1        0.1258
     20 C         143.6928  138.1342  166.5713 C.3     1  UNL1        0.1637
     21 O         143.3585  138.5865  167.9619 O.3     1  UNL1       -0.3501
     22 C         142.4591  139.7687  168.1701 C.3     1  UNL1        0.1637
     23 C         141.8939  140.4986  166.9878 C.3     1  UNL1        0.1258
     24 C         142.6281  135.7362  156.5779 C.ar    1  UNL1        0.0395
     25 C         143.4019  134.5629  157.1019 C.ar    1  UNL1        0.0046
     26 C         143.0486  133.1737  156.6598 C.ar    1  UNL1        0.0232
     27 C         141.9215  132.9579  155.6938 C.ar    1  UNL1        0.1526
     28 N         141.1477  134.1313  155.1699 N.ar    1  UNL1       -0.2398
     29 C         141.5011  135.5205  155.6120 C.ar    1  UNL1        0.1003
     30 C         141.5682  131.5688  155.2518 C.3     1  UNL1        0.4348
     31 F         141.2149  130.1796  154.8097 F       1  UNL1       -0.1644
     32 F         140.8012  132.1327  154.0926 F       1  UNL1       -0.1644
     33 F         142.3352  131.0048  156.4109 F       1  UNL1       -0.1644
@<TRIPOS>BOND
     1     1     2    1
     2     2     3   ar
     3     3     4   ar
     4     4     5   ar
     5     5    10    1
     6    10    11   ar
     7    11    12   ar
     8    12    13   ar
     9    13    16    1
    10    16    17    2
    11    16    18   am
    12    18    19    1
    13    19    20    1
    14    20    21    1
    15    21    22    1
    16    22    23    1
    17    13    14   ar
    18    14    15   ar
    19     5     6   ar
    20     6     7   ar
    21     7    24    1
    22    24    25   ar
    23    25    26   ar
    24    26    27   ar
    25    27    30    1
    26    30    31    1
    27    30    32    1
    28    30    33    1
    29    27    28   ar
    30    28    29   ar
    31     7     2   ar
    32    29    24   ar
    33    15    10   ar
    34    23    18    1
    35     1     8    1
    36     1     9    1
@<TRIPOS>MOLECULE
*****
 33 36 0 0 0
SMALL
GASTEIGER

@<TRIPOS>ATOM
      1 N         144.6509  137.0889  155.1987 N.pl3   1  UNL1       -0.3414
      2 C         143.7581  137.7573  156.2018 C.ar    1  UNL1        0.1433
      3 N         143.9386  139.2133  156.5138 N.ar    1  UNL1       -0.2265
      4 C         143.0458  139.8817  157.5169 C.ar    1  UNL1        0.1193
      5 C         141.9725  139.0941  158.2080 C.ar    1  UNL1        0.1005
      6 N         141.7920  137.6381  157.8960 N.ar    1  UNL1       -0.2409
      7 C         142.6848  136.9697  156.8929 C.ar    1  UNL1        0.1138
      8 H         145.3553  137.6059  154.7452 H       1  UNL1        0.1438
      9 H         144.5324  136.1332  154.9940 H       1  UNL1        0.1438
     10 C         141.0797  139.7625  159.2111 C.ar    1  UNL1        0.0192
     11 C         140.9720  139.2133  160.6027 C.ar    1  UNL1        0.0017
     12 C         140.0792  139.8817  161.6058 C.ar    1  UNL1        0.0046
     13 C         139.2941  141.0992  161.2172 C.ar    1  UNL1        0.0536
     14 C         139.4018  141.6484  159.8256 C.ar    1  UNL1        0.0046
     15 C         140.2946  140.9800  158.8225 C.ar    1  UNL1        0.0017
     16 C         138.4013  141.7676  162.2203 C.2     1  UNL1        0.2492
     17 O         136.9745  141.3281  162.3648 O.2     1  UNL1       -0.2699
     18 N         138.9354  142.8756  163.0789 N.am    1  UNL1       -0.2709
     19 C         140.3623  143.3152  162.9344 C.3     1  UNL1        0.1258
     20 C         140.8963  144.4231  163.7930 C.3     1  UNL1        0.1637
     21 O         140.0035  145.0915  164.7961 O.3     1  UNL1       -0.3501
     22 C         138.5767  144.6520  164.9406 C.3     1  UNL1        0.1637
     23 C         138.0426  143.5440  164.0820 C.3     1  UNL1        0.1258
     24 C         142.5042  135.5136  156.5809 C.ar    1  UNL1        0.0395
     25 C         141.6040  135.0934  155.4571 C.ar    1  UNL1        0.0046
     26 C         141.4234  133.6374  155.1451 C.ar    1  UNL1        0.0232
     27 C         142.1431  132.6015  155.9569 C.ar    1  UNL1        0.1526
     28 N         143.0434  133.0217  157.0808 N.ar    1  UNL1       -0.2398
     29 C         143.2239  134.4778  157.3928 C.ar    1  UNL1        0.1003
     30 C         141.9625  131.1455  155.6449 C.3     1  UNL1        0.4348
     31 F         141.7820  129.6895  155.3329 F       1  UNL1       -0.1644
     32 F         142.9151  130.7909  156.7481 F       1  UNL1       -0.1644
     33 F         141.0100  131.5000  154.5418 F       1  UNL1       -0.1644
@<TRIPOS>BOND
     1     1     2    1
     2     2     3   ar
     3     3     4   ar
     4     4     5   ar
     5     5    10    1
     6    10    11   ar
     7    11    12   ar
     8    12    13   ar
     9    13    16    1
    10    16    17    2
    11    16    18   am
    12    18    19    1
    13    19    20    1
    14    20    21    1
    15    21    22    1
    16    22    23    1
    17    13    14   ar
    18    14    15   ar
    19     5     6   ar
    20     6     7   ar
    21     7    24    1
    22    24    25   ar
    23    25    26   ar
    24    26    27   ar
    25    27    30    1
    26    30    31    1
    27    30    32    1
    28    30    33    1
    29    27    28   ar
    30    28    29   ar
    31     7     2   ar
    32    29    24   ar
    33    15    10   ar
    34    23    18    1
    35     1     8    1
    36     1     9    1
@<TRIPOS>MOLECULE
*****
 33 36 0 0 0
SMALL
GASTEIGER

@<TRIPOS>ATOM
      1 N         139.8377  140.4147  156.5933 N.pl3   1  UNL1       -0.3414
      2 C         139.6647  140.2731  158.0766 C.ar    1  UNL1        0.1433
      3 N         138.3191  139.9337  158.6457 N.ar    1  UNL1       -0.2265
      4 C         138.1461  139.7921  160.1289 C.ar    1  UNL1        0.1193
      5 C         139.3188  139.9899  161.0431 C.ar    1  UNL1        0.1005
      6 N         140.6644  140.3294  160.4739 N.ar    1  UNL1       -0.2409
      7 C         140.8374  140.4710  158.9907 C.ar    1  UNL1        0.1138
      8 H         139.0680  140.2849  155.9933 H       1  UNL1        0.1438
      9 H         140.7209  140.6375  156.2198 H       1  UNL1        0.1438
     10 C         139.1458  139.8483  162.5263 C.ar    1  UNL1        0.0192
     11 C         139.9282  138.8119  163.2771 C.ar    1  UNL1        0.0017
     12 C         139.7553  138.6703  164.7603 C.ar    1  UNL1        0.0046
     13 C         138.7999  139.5651  165.4928 C.ar    1  UNL1        0.0536
     14 C         138.0175  140.6015  164.7420 C.ar    1  UNL1        0.0046
     15 C         138.1904  140.7431  163.2588 C.ar    1  UNL1        0.0017
     16 C         138.6269  139.4235  166.9760 C.2     1  UNL1        0.2492
     17 O         137.6595  138.4175  167.5257 O.2     1  UNL1       -0.2699
     18 N         139.4214  140.2878  167.9097 N.am    1  UNL1       -0.2709
     19 C         140.3888  141.2938  167.3601 C.3     1  UNL1        0.1258
     20 C         141.1833  142.1582  168.2937 C.3     1  UNL1        0.1637
     21 O         141.0103  142.0166  169.7770 O.3     1  UNL1       -0.3501
     22 C         140.0429  141.0106  170.3266 C.3     1  UNL1        0.1637
     23 C         139.2484  140.1462  169.3929 C.3     1  UNL1        0.1258
     24 C         142.1831  140.8105  158.4215 C.ar    1  UNL1        0.0395
     25 C         142.5728  142.2452  158.2222 C.ar    1  UNL1        0.0046
     26 C         143.9185  142.5847  157.6531 C.ar    1  UNL1        0.0232
     27 C         144.8745  141.4895  157.2833 C.ar    1  UNL1        0.1526
     28 N         144.4848  140.0548  157.4827 N.ar    1  UNL1       -0.2398
     29 C         143.1390  139.7153  158.0518 C.ar    1  UNL1        0.1003
     30 C         146.2201  141.8290  156.7142 C.3     1  UNL1        0.4348
     31 F         147.5658  142.1685  156.1451 F       1  UNL1       -0.1644
     32 F         146.0481  140.7640  155.6720 F       1  UNL1       -0.1644
     33 F         146.3922  142.8939  157.7564 F       1  UNL1       -0.1644
@<TRIPOS>BOND
     1     1     2    1
     2     2     3   ar
     3     3     4   ar
     4     4     5   ar
     5     5    10    1
     6    10    11   ar
     7    11    12   ar
     8    12    13   ar
     9    13    16    1
    10    16    17    2
    11    16    18   am
    12    18    19    1
    13    19    20    1
    14    20    21    1
    15    21    22    1
    16    22    23    1
    17    13    14   ar
    18    14    15   ar
    19     5     6   ar
    20     6     7   ar
    21     7    24    1
    22    24    25   ar
    23    25    26   ar
    24    26    27   ar
    25    27    30    1
    26    30    31    1
    27    30    32    1
    28    30    33    1
    29    27    28   ar
    30    28    29   ar
    31     7     2   ar
    32    29    24   ar
    33    15    10   ar
    34    23    18    1
    35     1     8    1
    36     1     9    1
@<TRIPOS>MOLECULE
*****
 33 36 0 0 0
SMALL
GASTEIGER

@<TRIPOS>ATOM
      1 N         138.0136  145.4619  154.4125 N.pl3   1  UNL1       -0.3414
      2 C         138.7189  145.2611  155.7210 C.ar    1  UNL1        0.1433
      3 N         138.7908  143.8931  156.3320 N.ar    1  UNL1       -0.2265
      4 C         139.4961  143.6923  157.6406 C.ar    1  UNL1        0.1193
      5 C         140.1293  144.8594  158.3381 C.ar    1  UNL1        0.1005
      6 N         140.0574  146.2274  157.7272 N.ar    1  UNL1       -0.2409
      7 C         139.3521  146.4283  156.4186 C.ar    1  UNL1        0.1138
      8 H         137.5980  144.6959  153.9546 H       1  UNL1        0.1438
      9 H         137.9664  146.3598  154.0115 H       1  UNL1        0.1438
     10 C         140.8346  144.6586  159.6467 C.ar    1  UNL1        0.0192
     11 C         142.0512  143.7840  159.7165 C.ar    1  UNL1        0.0017
     12 C         142.7564  143.5832  161.0250 C.ar    1  UNL1        0.0046
     13 C         142.2450  144.2569  162.2638 C.ar    1  UNL1        0.0536
     14 C         141.0284  145.1315  162.1940 C.ar    1  UNL1        0.0046
     15 C         140.3232  145.3323  160.8854 C.ar    1  UNL1        0.0017
     16 C         142.9503  144.0561  163.5723 C.2     1  UNL1        0.2492
     17 O         144.0179  145.0171  164.0042 O.2     1  UNL1       -0.2699
     18 N         142.5879  142.8942  164.4490 N.am    1  UNL1       -0.2709
     19 C         141.5203  141.9330  164.0172 C.3     1  UNL1        0.1258
     20 C         141.1579  140.7711  164.8939 C.3     1  UNL1        0.1637
     21 O         141.8631  140.5703  166.2024 O.3     1  UNL1       -0.3501
     22 C         142.9307  141.5313  166.6343 C.3     1  UNL1        0.1637
     23 C         143.2932  142.6933  165.7576 C.3     1  UNL1        0.1258
     24 C         139.2802  147.7964  155.8076 C.ar    1  UNL1        0.0395
     25 C         140.0349  148.0950  154.5462 C.ar    1  UNL1        0.0046
     26 C         139.9630  149.4630  153.9352 C.ar    1  UNL1        0.0232
     27 C         139.1363  150.5325  154.5857 C.ar    1  UNL1        0.1526
     28 N         138.3817  150.2338  155.8471 N.ar    1  UNL1       -0.2398
     29 C         138.4536  148.8657  156.4581 C.ar    1  UNL1        0.1003
     30 C         139.0644  151.9005  153.9747 C.3     1  UNL1        0.4348
     31 F         138.9925  153.2685  153.3637 F       1  UNL1       -0.1644
     32 F         140.0594  151.4867  152.9312 F       1  UNL1       -0.1644
     33 F         138.0695  152.3142  155.0182 F       1  UNL1       -0.1644
@<TRIPOS>BOND
     1     1     2    1
     2     2     3   ar
     3     3     4   ar
     4     4     5   ar
     5     5    10    1
     6    10    11   ar
     7    11    12   ar
     8    12    13   ar
     9    13    16    1
    10    16    17    2
    11    16    18   am
    12    18    19    1
    13    19    20    1
    14    20    21    1
    15    21    22    1
    16    22    23    1
    17    13    14   ar
    18    14    15   ar
    19     5     6   ar
    20     6     7   ar
    21     7    24    1
    22    24    25   ar
    23    25    26   ar
    24    26    27   ar
    25    27    30    1
    26    30    31    1
    27    30    32    1
    28    30    33    1
    29    27    28   ar
    30    28    29   ar
    31     7     2   ar
    32    29    24   ar
    33    15    10   ar
    34    23    18    1
    35     1     8    1
    36     1     9    1
