@<TRIPOS>MOLECULE
*****
 19 19 0 0 0
SMALL
GASTEIGER

@<TRIPOS>ATOM
      1 C         139.6504  141.2046  166.2495 C.1     1  UNL1       -0.0730
      2 C         138.8506  139.9410  166.3667 C.1     1  UNL1       -0.0893
      3 C         140.4501  142.4682  166.1324 C.3     1  UNL1        0.1498
      4 N         140.4551  143.2359  164.8437 N.3     1  UNL1       -0.2618
      5 C         141.4090  142.8581  163.7494 C.3     1  UNL1        0.0730
      6 C         141.1578  141.6295  162.9265 C.3     1  UNL1        0.0188
      7 C         139.5063  144.3812  164.6494 C.3     1  UNL1        0.0730
      8 C         138.0623  144.1152  164.3423 C.3     1  UNL1        0.0174
      9 C         137.4232  141.8056  163.3388 C.3     1  UNL1        0.0000
     10 C         137.6903  143.2707  163.1598 C.3     1  UNL1        0.0014
     11 C         138.0508  138.6774  166.4838 C.3     1  UNL1        0.0808
     12 C         138.4421  137.4659  165.6907 C.3     1  UNL1        0.0403
     13 C         139.3390  137.6085  164.4969 C.ar    1  UNL1       -0.0212
     14 C         138.7552  137.9389  163.1553 C.ar    1  UNL1       -0.0046
     15 C         139.6521  138.0815  161.9615 C.ar    1  UNL1       -0.0046
     16 C         141.1329  137.8938  162.1093 C.ar    1  UNL1       -0.0219
     17 C         142.0299  138.0364  160.9155 C.3     1  UNL1        0.0310
     18 C         141.7168  137.5634  163.4509 C.ar    1  UNL1       -0.0046
     19 C         140.8199  137.4208  164.6447 C.ar    1  UNL1       -0.0046
@<TRIPOS>BOND
     1     9    10    1
     2    10     8    1
     3     8     7    1
     4     7     4    1
     5     4     5    1
     6     5     6    1
     7     4     3    1
     8     3     1    1
     9     1     2    3
    10     2    11    1
    11    11    12    1
    12    12    13    1
    13    13    14   ar
    14    14    15   ar
    15    15    16   ar
    16    16    17    1
    17    16    18   ar
    18    18    19   ar
    19    19    13   ar
@<TRIPOS>MOLECULE
*****
 19 19 0 0 0
SMALL
GASTEIGER

@<TRIPOS>ATOM
      1 C         137.7525  141.2611  162.9515 C.1     1  UNL1       -0.0730
      2 C         137.6778  142.6671  163.4688 C.1     1  UNL1       -0.0893
      3 C         137.8273  139.8551  162.4342 C.3     1  UNL1        0.1498
      4 N         139.0573  139.0313  162.6762 N.3     1  UNL1       -0.2618
      5 C         140.3971  139.5342  162.2268 C.3     1  UNL1        0.0730
      6 C         141.2784  140.2794  163.1848 C.3     1  UNL1        0.0188
      7 C         138.9474  137.7047  163.3676 C.3     1  UNL1        0.0730
      8 C         139.2329  137.5985  164.8364 C.3     1  UNL1        0.0174
      9 C         138.7990  139.7421  166.2386 C.3     1  UNL1        0.0000
     10 C         138.3947  138.3596  165.8203 C.3     1  UNL1        0.0014
     11 C         137.6030  144.0731  163.9862 C.3     1  UNL1        0.0808
     12 C         138.5489  144.5294  165.0572 C.3     1  UNL1        0.0403
     13 C         139.9727  144.0575  165.0512 C.ar    1  UNL1       -0.0212
     14 C         140.4248  143.0251  166.0409 C.ar    1  UNL1       -0.0046
     15 C         141.8486  142.5532  166.0350 C.ar    1  UNL1       -0.0046
     16 C         142.8204  143.1138  165.0394 C.ar    1  UNL1       -0.0219
     17 C         144.2442  142.6419  165.0334 C.3     1  UNL1        0.0310
     18 C         142.3683  144.1462  164.0496 C.ar    1  UNL1       -0.0046
     19 C         140.9445  144.6181  164.0556 C.ar    1  UNL1       -0.0046
@<TRIPOS>BOND
     1     9    10    1
     2    10     8    1
     3     8     7    1
     4     7     4    1
     5     4     5    1
     6     5     6    1
     7     4     3    1
     8     3     1    1
     9     1     2    3
    10     2    11    1
    11    11    12    1
    12    12    13    1
    13    13    14   ar
    14    14    15   ar
    15    15    16   ar
    16    16    17    1
    17    16    18   ar
    18    18    19   ar
    19    19    13   ar
@<TRIPOS>MOLECULE
*****
 19 19 0 0 0
SMALL
GASTEIGER

@<TRIPOS>ATOM
      1 C         137.8513  141.3414  163.9192 C.1     1  UNL1       -0.0730
      2 C         138.0440  140.1980  164.8707 C.1     1  UNL1       -0.0893
      3 C         137.6587  142.4849  162.9676 C.3     1  UNL1        0.1498
      4 N         138.7738  143.4601  162.7315 N.3     1  UNL1       -0.2618
      5 C         138.8217  144.7457  163.5027 C.3     1  UNL1        0.0730
      6 C         139.0615  144.7237  164.9832 C.3     1  UNL1        0.0188
      7 C         139.8408  143.1496  161.7241 C.3     1  UNL1        0.0730
      8 C         141.2157  142.7630  162.1828 C.3     1  UNL1        0.0174
      9 C         141.5019  141.8530  164.5993 C.3     1  UNL1        0.0000
     10 C         141.3955  141.6084  163.1233 C.3     1  UNL1        0.0014
     11 C         138.2366  139.0546  165.8222 C.3     1  UNL1        0.0808
     12 C         138.9403  137.8105  165.3671 C.3     1  UNL1        0.0403
     13 C         140.1499  137.9127  164.4861 C.ar    1  UNL1       -0.0212
     14 C         141.4934  138.2017  165.0872 C.ar    1  UNL1       -0.0046
     15 C         142.7030  138.3039  164.2062 C.ar    1  UNL1       -0.0046
     16 C         142.5692  138.1171  162.7239 C.ar    1  UNL1       -0.0219
     17 C         143.7789  138.2193  161.8428 C.3     1  UNL1        0.0310
     18 C         141.2257  137.8281  162.1227 C.ar    1  UNL1       -0.0046
     19 C         140.0161  137.7259  163.0038 C.ar    1  UNL1       -0.0046
@<TRIPOS>BOND
     1     9    10    1
     2    10     8    1
     3     8     7    1
     4     7     4    1
     5     4     5    1
     6     5     6    1
     7     4     3    1
     8     3     1    1
     9     1     2    3
    10     2    11    1
    11    11    12    1
    12    12    13    1
    13    13    14   ar
    14    14    15   ar
    15    15    16   ar
    16    16    17    1
    17    16    18   ar
    18    18    19   ar
    19    19    13   ar
@<TRIPOS>MOLECULE
*****
 19 19 0 0 0
SMALL
GASTEIGER

@<TRIPOS>ATOM
      1 C         141.6006  141.2277  166.6702 C.1     1  UNL1       -0.0730
      2 C         140.4692  140.5138  167.3487 C.1     1  UNL1       -0.0893
      3 C         142.7321  141.9415  165.9918 C.3     1  UNL1        0.1498
      4 N         142.9501  141.7708  164.5175 N.3     1  UNL1       -0.2618
      5 C         144.1934  142.3113  163.8757 C.3     1  UNL1        0.0730
      6 C         145.4785  141.5428  163.9652 C.3     1  UNL1        0.0188
      7 C         141.9248  141.0596  163.6852 C.3     1  UNL1        0.0730
      8 C         142.1948  139.6703  163.1881 C.3     1  UNL1        0.0174
      9 C         142.4484  138.0448  165.1988 C.3     1  UNL1        0.0000
     10 C         143.0360  138.7326  164.0024 C.3     1  UNL1        0.0014
     11 C         139.3378  139.8000  168.0271 C.3     1  UNL1        0.0808
     12 C         138.2167  139.2264  167.2122 C.3     1  UNL1        0.0403
     13 C         138.3966  139.0058  165.7395 C.ar    1  UNL1       -0.0212
     14 C         138.1001  140.1141  164.7733 C.ar    1  UNL1       -0.0046
     15 C         138.2800  139.8935  163.3006 C.ar    1  UNL1       -0.0046
     16 C         138.7564  138.5645  162.7940 C.ar    1  UNL1       -0.0219
     17 C         138.9363  138.3438  161.3213 C.3     1  UNL1        0.0310
     18 C         139.0529  137.4561  163.7602 C.ar    1  UNL1       -0.0046
     19 C         138.8730  137.6767  165.2330 C.ar    1  UNL1       -0.0046
@<TRIPOS>BOND
     1     9    10    1
     2    10     8    1
     3     8     7    1
     4     7     4    1
     5     4     5    1
     6     5     6    1
     7     4     3    1
     8     3     1    1
     9     1     2    3
    10     2    11    1
    11    11    12    1
    12    12    13    1
    13    13    14   ar
    14    14    15   ar
    15    15    16   ar
    16    16    17    1
    17    16    18   ar
    18    18    19   ar
    19    19    13   ar
@<TRIPOS>MOLECULE
*****
 19 19 0 0 0
SMALL
GASTEIGER

@<TRIPOS>ATOM
      1 C         138.8781  139.5198  167.3475 C.1     1  UNL1       -0.0730
      2 C         139.7511  139.9310  168.4959 C.1     1  UNL1       -0.0893
      3 C         138.0051  139.1087  166.1991 C.3     1  UNL1        0.1498
      4 N         138.5429  139.1408  164.7991 N.3     1  UNL1       -0.2618
      5 C         139.0655  137.8847  164.1675 C.3     1  UNL1        0.0730
      6 C         140.4414  137.3919  164.5049 C.3     1  UNL1        0.0188
      7 C         138.5580  140.4291  164.0309 C.3     1  UNL1        0.0730
      8 C         139.8636  141.0874  163.6961 C.3     1  UNL1        0.0174
      9 C         139.7920  142.6851  165.7434 C.3     1  UNL1        0.0000
     10 C         140.2337  142.3903  164.3406 C.3     1  UNL1        0.0014
     11 C         140.6241  140.3421  169.6443 C.3     1  UNL1        0.0808
     12 C         142.0833  140.6071  169.4198 C.3     1  UNL1        0.0403
     13 C         142.5974  140.8451  168.0308 C.ar    1  UNL1       -0.0212
     14 C         142.9884  142.2285  167.6026 C.ar    1  UNL1       -0.0046
     15 C         143.5025  142.4665  166.2137 C.ar    1  UNL1       -0.0046
     16 C         143.6254  141.3212  165.2530 C.ar    1  UNL1       -0.0219
     17 C         144.1394  141.5592  163.8640 C.3     1  UNL1        0.0310
     18 C         143.2343  139.9378  165.6812 C.ar    1  UNL1       -0.0046
     19 C         142.7203  139.6998  167.0701 C.ar    1  UNL1       -0.0046
@<TRIPOS>BOND
     1     9    10    1
     2    10     8    1
     3     8     7    1
     4     7     4    1
     5     4     5    1
     6     5     6    1
     7     4     3    1
     8     3     1    1
     9     1     2    3
    10     2    11    1
    11    11    12    1
    12    12    13    1
    13    13    14   ar
    14    14    15   ar
    15    15    16   ar
    16    16    17    1
    17    16    18   ar
    18    18    19   ar
    19    19    13   ar
@<TRIPOS>MOLECULE
*****
 19 19 0 0 0
SMALL
GASTEIGER

@<TRIPOS>ATOM
      1 C         142.7502  143.8953  164.0710 C.1     1  UNL1       -0.0730
      2 C         144.0312  143.1250  164.1957 C.1     1  UNL1       -0.0893
      3 C         141.4691  144.6656  163.9464 C.3     1  UNL1        0.1498
      4 N         140.1565  143.9399  163.9265 N.3     1  UNL1       -0.2618
      5 C         138.8860  144.6795  164.2245 C.3     1  UNL1        0.0730
      6 C         138.5107  144.9838  165.6445 C.3     1  UNL1        0.0188
      7 C         140.1144  142.4746  163.6087 C.3     1  UNL1        0.0730
      8 C         139.9262  141.4734  164.7097 C.3     1  UNL1        0.0174
      9 C         140.5406  142.1802  167.1331 C.3     1  UNL1        0.0000
     10 C         140.8774  141.4460  165.8692 C.3     1  UNL1        0.0014
     11 C         145.3123  142.3547  164.3203 C.3     1  UNL1        0.0808
     12 C         145.3989  140.9531  163.7931 C.3     1  UNL1        0.0403
     13 C         144.2474  140.0098  163.9778 C.ar    1  UNL1       -0.0212
     14 C         144.0748  139.2824  165.2782 C.ar    1  UNL1       -0.0046
     15 C         142.9232  138.3391  165.4628 C.ar    1  UNL1       -0.0046
     16 C         141.9442  138.1232  164.3471 C.ar    1  UNL1       -0.0219
     17 C         140.7927  137.1799  164.5317 C.3     1  UNL1        0.0310
     18 C         142.1168  138.8506  163.0467 C.ar    1  UNL1       -0.0046
     19 C         143.2684  139.7939  162.8620 C.ar    1  UNL1       -0.0046
@<TRIPOS>BOND
     1     9    10    1
     2    10     8    1
     3     8     7    1
     4     7     4    1
     5     4     5    1
     6     5     6    1
     7     4     3    1
     8     3     1    1
     9     1     2    3
    10     2    11    1
    11    11    12    1
    12    12    13    1
    13    13    14   ar
    14    14    15   ar
    15    15    16   ar
    16    16    17    1
    17    16    18   ar
    18    18    19   ar
    19    19    13   ar
@<TRIPOS>MOLECULE
*****
 19 19 0 0 0
SMALL
GASTEIGER

@<TRIPOS>ATOM
      1 C         139.8115  141.1103  166.4158 C.1     1  UNL1       -0.0730
      2 C         138.9352  139.8931  166.4387 C.1     1  UNL1       -0.0893
      3 C         140.6878  142.3275  166.3929 C.3     1  UNL1        0.1498
      4 N         141.9147  142.3847  167.2540 N.3     1  UNL1       -0.2618
      5 C         143.2755  142.3355  166.6248 C.3     1  UNL1        0.0730
      6 C         143.4142  142.3912  165.1323 C.3     1  UNL1        0.0188
      7 C         141.7808  142.4910  168.7442 C.3     1  UNL1        0.0730
      8 C         140.5525  143.1079  169.3447 C.3     1  UNL1        0.0174
      9 C         139.2534  140.9610  170.0177 C.3     1  UNL1        0.0000
     10 C         139.7411  142.3409  170.3464 C.3     1  UNL1        0.0014
     11 C         138.0589  138.6759  166.4616 C.3     1  UNL1        0.0808
     12 C         138.4522  137.4539  165.6857 C.3     1  UNL1        0.0403
     13 C         139.3641  137.5788  164.5013 C.ar    1  UNL1       -0.0212
     14 C         138.7922  137.8294  163.1375 C.ar    1  UNL1       -0.0046
     15 C         139.7041  137.9543  161.9531 C.ar    1  UNL1       -0.0046
     16 C         141.1880  137.8285  162.1325 C.ar    1  UNL1       -0.0219
     17 C         142.0999  137.9533  160.9481 C.3     1  UNL1        0.0310
     18 C         141.7599  137.5778  163.4963 C.ar    1  UNL1       -0.0046
     19 C         140.8480  137.4529  164.6807 C.ar    1  UNL1       -0.0046
@<TRIPOS>BOND
     1     9    10    1
     2    10     8    1
     3     8     7    1
     4     7     4    1
     5     4     5    1
     6     5     6    1
     7     4     3    1
     8     3     1    1
     9     1     2    3
    10     2    11    1
    11    11    12    1
    12    12    13    1
    13    13    14   ar
    14    14    15   ar
    15    15    16   ar
    16    16    17    1
    17    16    18   ar
    18    18    19   ar
    19    19    13   ar
@<TRIPOS>MOLECULE
*****
 19 19 0 0 0
SMALL
GASTEIGER

@<TRIPOS>ATOM
      1 C         137.9919  140.9969  163.8150 C.1     1  UNL1       -0.0730
      2 C         137.8338  142.4505  164.1498 C.1     1  UNL1       -0.0893
      3 C         138.1499  139.5433  163.4802 C.3     1  UNL1        0.1498
      4 N         138.9067  138.6383  164.4067 N.3     1  UNL1       -0.2618
      5 C         138.4327  138.4417  165.8162 C.3     1  UNL1        0.0730
      6 C         138.8529  139.4014  166.8896 C.3     1  UNL1        0.0188
      7 C         140.1376  137.9300  163.9237 C.3     1  UNL1        0.0730
      8 C         141.4883  138.5498  164.1276 C.3     1  UNL1        0.0174
      9 C         143.5975  138.8884  165.6061 C.3     1  UNL1        0.0000
     10 C         142.1811  138.4197  165.4516 C.3     1  UNL1        0.0014
     11 C         137.6758  143.9041  164.4845 C.3     1  UNL1        0.0808
     12 C         138.8016  144.6502  165.1370 C.3     1  UNL1        0.0403
     13 C         140.2006  144.1147  165.0596 C.ar    1  UNL1       -0.0212
     14 C         141.1709  144.6914  164.0717 C.ar    1  UNL1       -0.0046
     15 C         142.5699  144.1559  163.9943 C.ar    1  UNL1       -0.0046
     16 C         142.9986  143.0436  164.9048 C.ar    1  UNL1       -0.0219
     17 C         144.3976  142.5081  164.8274 C.3     1  UNL1        0.0310
     18 C         142.0284  142.4669  165.8927 C.ar    1  UNL1       -0.0046
     19 C         140.6294  143.0024  165.9701 C.ar    1  UNL1       -0.0046
@<TRIPOS>BOND
     1     9    10    1
     2    10     8    1
     3     8     7    1
     4     7     4    1
     5     4     5    1
     6     5     6    1
     7     4     3    1
     8     3     1    1
     9     1     2    3
    10     2    11    1
    11    11    12    1
    12    12    13    1
    13    13    14   ar
    14    14    15   ar
    15    15    16   ar
    16    16    17    1
    17    16    18   ar
    18    18    19   ar
    19    19    13   ar
@<TRIPOS>MOLECULE
*****
 19 19 0 0 0
SMALL
GASTEIGER

@<TRIPOS>ATOM
      1 C         141.4115  144.5582  163.2756 C.1     1  UNL1       -0.0730
      2 C         140.1948  144.7067  164.1402 C.1     1  UNL1       -0.0893
      3 C         142.6282  144.4096  162.4109 C.3     1  UNL1        0.1498
      4 N         143.3486  143.0954  162.3494 N.3     1  UNL1       -0.2618
      5 C         142.6952  141.9116  161.7001 C.3     1  UNL1        0.0730
      6 C         141.6624  141.1213  162.4476 C.3     1  UNL1        0.0188
      7 C         144.7225  142.9650  162.9371 C.3     1  UNL1        0.0730
      8 C         144.8953  142.4352  164.3298 C.3     1  UNL1        0.0174
      9 C         142.8401  142.3405  165.9163 C.3     1  UNL1        0.0000
     10 C         144.0975  143.0181  165.4584 C.3     1  UNL1        0.0014
     11 C         138.9781  144.8552  165.0048 C.3     1  UNL1        0.0808
     12 C         137.7545  144.0340  164.7252 C.3     1  UNL1        0.0403
     13 C         137.8907  142.6638  164.1302 C.ar    1  UNL1       -0.0212
     14 C         137.6092  142.4477  162.6728 C.ar    1  UNL1       -0.0046
     15 C         137.7454  141.0775  162.0777 C.ar    1  UNL1       -0.0046
     16 C         138.1630  139.9234  162.9401 C.ar    1  UNL1       -0.0219
     17 C         138.2992  138.5533  162.3450 C.3     1  UNL1        0.0310
     18 C         138.4445  140.1396  164.3975 C.ar    1  UNL1       -0.0046
     19 C         138.3083  141.5097  164.9925 C.ar    1  UNL1       -0.0046
@<TRIPOS>BOND
     1     9    10    1
     2    10     8    1
     3     8     7    1
     4     7     4    1
     5     4     5    1
     6     5     6    1
     7     4     3    1
     8     3     1    1
     9     1     2    3
    10     2    11    1
    11    11    12    1
    12    12    13    1
    13    13    14   ar
    14    14    15   ar
    15    15    16   ar
    16    16    17    1
    17    16    18   ar
    18    18    19   ar
    19    19    13   ar
