@<TRIPOS>MOLECULE
*****
 34 37 0 0 0
SMALL
GASTEIGER

@<TRIPOS>ATOM
      1 N         141.1481  138.6838  157.7364 N.3     1  UNL1       -0.2689
      2 C         139.7640  138.4417  158.2614 C.3     1  UNL1        0.0741
      3 C         139.4329  138.7761  159.6858 C.3     1  UNL1        0.0369
      4 C         140.4860  139.3525  160.5850 C.3     1  UNL1        0.0747
      5 C         141.8701  139.5947  160.0601 C.3     1  UNL1        0.0369
      6 C         142.2012  139.2604  158.6358 C.3     1  UNL1        0.0741
      7 N         140.1549  139.6869  162.0093 N.am    1  UNL1       -0.2999
      8 C         140.1869  138.6151  163.0582 C.2     1  UNL1        0.2806
      9 O         140.5501  137.2090  162.6829 O.2     1  UNL1       -0.2668
     10 H         139.9165  140.6098  162.2557 H       1  UNL1        0.1498
     11 C         139.8558  138.9495  164.4826 C.ar    1  UNL1        0.2014
     12 C         138.6812  138.2998  165.1519 C.ar    1  UNL1        0.0843
     13 C         138.3500  138.6341  166.5761 C.ar    1  UNL1        0.2018
     14 O         137.1754  137.9844  167.2454 O.2     1  UNL1       -0.2864
     15 C         139.1936  139.6182  167.3311 C.ar    1  UNL1        0.0737
     16 C         138.8625  139.9526  168.7554 C.ar    1  UNL1        0.0085
     17 C         139.7060  140.9367  169.5103 C.ar    1  UNL1        0.0299
     18 C         140.8807  141.5864  168.8410 C.ar    1  UNL1        0.1432
     19 F         141.7242  142.5705  169.5960 F       1  UNL1       -0.2041
     20 C         141.2118  141.2521  167.4167 C.ar    1  UNL1        0.0672
     21 C         140.3683  140.2680  166.6618 C.ar    1  UNL1        0.1508
     22 O         140.6994  139.9336  165.2375 O.2     1  UNL1       -0.4486
     23 C         141.4792  138.3495  156.3122 C.3     1  UNL1        0.0991
     24 C         142.7793  134.1813  155.2232 C.ar    1  UNL1        0.0503
     25 C         141.3553  134.6022  155.0113 C.ar    1  UNL1        0.0144
     26 C         140.9219  135.9916  155.3743 C.ar    1  UNL1       -0.0016
     27 C         141.9126  136.9601  155.9492 C.ar    1  UNL1       -0.0061
     28 C         143.3366  136.5392  156.1610 C.ar    1  UNL1       -0.0016
     29 C         143.7700  135.1498  155.7980 C.ar    1  UNL1        0.0144
     30 C         143.6129  130.3132  155.5279 C.3     1  UNL1        0.0949
     31 C         143.1796  131.7026  155.8909 C.2     1  UNL1        0.2266
     32 O         142.7131  132.0027  157.2846 O.2     1  UNL1       -0.2748
     33 N         143.2127  132.7919  154.8602 N.am    1  UNL1       -0.2839
     34 H         143.5188  132.5950  153.9455 H       1  UNL1        0.1549
@<TRIPOS>BOND
     1    30    31    1
     2    31    32    2
     3    31    33   am
     4    33    24    1
     5    24    25   ar
     6    25    26   ar
     7    26    27   ar
     8    27    23    1
     9    23     1    1
    10     1     2    1
    11     2     3    1
    12     3     4    1
    13     4     7    1
    14     7     8   am
    15     8     9    2
    16     8    11    1
    17    11    12   ar
    18    12    13   ar
    19    13    14    2
    20    13    15   ar
    21    15    16   ar
    22    16    17   ar
    23    17    18   ar
    24    18    19    1
    25    18    20   ar
    26    20    21   ar
    27    21    22   ar
    28     4     5    1
    29     5     6    1
    30    27    28   ar
    31    28    29   ar
    32    29    24   ar
    33     6     1    1
    34    22    11   ar
    35    21    15   ar
    36    33    34    1
    37     7    10    1
@<TRIPOS>MOLECULE
*****
 34 37 0 0 0
SMALL
GASTEIGER

@<TRIPOS>ATOM
      1 N         143.6719  142.0382  162.2501 N.3     1  UNL1       -0.2689
      2 C         144.1207  140.6392  162.5521 C.3     1  UNL1        0.0741
      3 C         144.0921  139.5938  161.4767 C.3     1  UNL1        0.0369
      4 C         143.6150  139.9475  160.0993 C.3     1  UNL1        0.0747
      5 C         143.1662  141.3466  159.7973 C.3     1  UNL1        0.0369
      6 C         143.1947  142.3920  160.8727 C.3     1  UNL1        0.0741
      7 N         143.5865  138.9022  159.0240 N.am    1  UNL1       -0.2999
      8 C         142.3244  138.1376  158.7545 C.2     1  UNL1        0.2806
      9 O         141.0908  138.4184  159.5603 O.2     1  UNL1       -0.2668
     10 H         144.3961  138.7179  158.4951 H       1  UNL1        0.1498
     11 C         142.2960  137.0922  157.6791 C.ar    1  UNL1        0.2014
     12 C         141.3796  137.2516  156.5023 C.ar    1  UNL1        0.0843
     13 C         141.3511  136.2063  155.4269 C.ar    1  UNL1        0.2018
     14 O         140.4347  136.3656  154.2501 O.2     1  UNL1       -0.2864
     15 C         142.2391  135.0015  155.5283 C.ar    1  UNL1        0.0737
     16 C         142.2106  133.9562  154.4529 C.ar    1  UNL1        0.0085
     17 C         143.0985  132.7515  154.5544 C.ar    1  UNL1        0.0299
     18 C         144.0149  132.5922  155.7312 C.ar    1  UNL1        0.1432
     19 F         144.9028  131.3874  155.8326 F       1  UNL1       -0.2041
     20 C         144.0434  133.6375  156.8065 C.ar    1  UNL1        0.0672
     21 C         143.1554  134.8422  156.7051 C.ar    1  UNL1        0.1508
     22 O         143.1839  135.8876  157.7805 O.2     1  UNL1       -0.4486
     23 C         143.7004  143.0836  163.3254 C.3     1  UNL1        0.0991
     24 C         141.4554  142.4200  167.1685 C.ar    1  UNL1        0.0503
     25 C         142.9396  142.2085  167.1208 C.ar    1  UNL1        0.0144
     26 C         143.6879  142.4297  165.8398 C.ar    1  UNL1       -0.0016
     27 C         142.9521  142.8624  164.6065 C.ar    1  UNL1       -0.0061
     28 C         141.4679  143.0739  164.6541 C.ar    1  UNL1       -0.0016
     29 C         140.7195  142.8527  165.9352 C.ar    1  UNL1        0.0144
     30 C         139.2045  140.6994  169.9475 C.3     1  UNL1        0.0949
     31 C         139.9528  140.9205  168.6665 C.2     1  UNL1        0.2266
     32 O         139.9470  139.8633  167.6023 O.2     1  UNL1       -0.2748
     33 N         140.7070  142.1988  168.4496 N.am    1  UNL1       -0.2839
     34 H         140.7109  142.8927  169.1480 H       1  UNL1        0.1549
@<TRIPOS>BOND
     1    30    31    1
     2    31    32    2
     3    31    33   am
     4    33    24    1
     5    24    25   ar
     6    25    26   ar
     7    26    27   ar
     8    27    23    1
     9    23     1    1
    10     1     2    1
    11     2     3    1
    12     3     4    1
    13     4     7    1
    14     7     8   am
    15     8     9    2
    16     8    11    1
    17    11    12   ar
    18    12    13   ar
    19    13    14    2
    20    13    15   ar
    21    15    16   ar
    22    16    17   ar
    23    17    18   ar
    24    18    19    1
    25    18    20   ar
    26    20    21   ar
    27    21    22   ar
    28     4     5    1
    29     5     6    1
    30    27    28   ar
    31    28    29   ar
    32    29    24   ar
    33     6     1    1
    34    22    11   ar
    35    21    15   ar
    36    33    34    1
    37     7    10    1
@<TRIPOS>MOLECULE
*****
 34 37 0 0 0
SMALL
GASTEIGER

@<TRIPOS>ATOM
      1 N         138.5722  139.1084  164.4828 N.3     1  UNL1       -0.2689
      2 C         138.7717  137.9913  163.5019 C.3     1  UNL1        0.0741
      3 C         138.3776  138.1745  162.0661 C.3     1  UNL1        0.0369
      4 C         137.7841  139.4749  161.6114 C.3     1  UNL1        0.0747
      5 C         137.5846  140.5920  162.5924 C.3     1  UNL1        0.0369
      6 C         137.9786  140.4088  164.0280 C.3     1  UNL1        0.0741
      7 N         137.3900  139.6581  160.1758 N.am    1  UNL1       -0.2999
      8 C         138.3833  140.1944  159.1880 C.2     1  UNL1        0.2806
      9 O         139.7706  140.5476  159.6358 O.2     1  UNL1       -0.2668
     10 H         136.4795  139.4263  159.8818 H       1  UNL1        0.1498
     11 C         137.9892  140.3776  157.7523 C.ar    1  UNL1        0.2014
     12 C         139.0302  140.3106  156.6744 C.ar    1  UNL1        0.0843
     13 C         138.6362  140.4938  155.2387 C.ar    1  UNL1        0.2018
     14 O         139.6772  140.4267  154.1609 O.2     1  UNL1       -0.2864
     15 C         137.2011  140.7440  154.8809 C.ar    1  UNL1        0.0737
     16 C         136.8070  140.9272  153.4453 C.ar    1  UNL1        0.0085
     17 C         135.3720  141.1774  153.0875 C.ar    1  UNL1        0.0299
     18 C         134.3310  141.2444  154.1654 C.ar    1  UNL1        0.1432
     19 F         132.8959  141.4947  153.8075 F       1  UNL1       -0.2041
     20 C         134.7251  141.0612  155.6010 C.ar    1  UNL1        0.0672
     21 C         136.1601  140.8110  155.9588 C.ar    1  UNL1        0.1508
     22 O         136.5542  140.6278  157.3945 O.2     1  UNL1       -0.4486
     23 C         138.9662  138.9252  165.9184 C.3     1  UNL1        0.0991
     24 C         142.0521  141.6287  167.7673 C.ar    1  UNL1        0.0503
     25 C         142.3846  140.8457  166.5319 C.ar    1  UNL1        0.0144
     26 C         141.3559  139.9445  165.9156 C.ar    1  UNL1       -0.0016
     27 C         139.9948  139.8263  166.5347 C.ar    1  UNL1       -0.0061
     28 C         139.6624  140.6093  167.7702 C.ar    1  UNL1       -0.0016
     29 C         140.6910  141.5105  168.3865 C.ar    1  UNL1        0.0144
     30 C         144.8594  142.9881  170.2210 C.3     1  UNL1        0.0949
     31 C         143.8308  142.0869  169.6048 C.2     1  UNL1        0.2266
     32 O         143.5522  140.7428  170.2097 O.2     1  UNL1       -0.2748
     33 N         143.0808  142.5298  168.3836 N.am    1  UNL1       -0.2839
     34 H         143.2636  143.4120  167.9866 H       1  UNL1        0.1549
@<TRIPOS>BOND
     1    30    31    1
     2    31    32    2
     3    31    33   am
     4    33    24    1
     5    24    25   ar
     6    25    26   ar
     7    26    27   ar
     8    27    23    1
     9    23     1    1
    10     1     2    1
    11     2     3    1
    12     3     4    1
    13     4     7    1
    14     7     8   am
    15     8     9    2
    16     8    11    1
    17    11    12   ar
    18    12    13   ar
    19    13    14    2
    20    13    15   ar
    21    15    16   ar
    22    16    17   ar
    23    17    18   ar
    24    18    19    1
    25    18    20   ar
    26    20    21   ar
    27    21    22   ar
    28     4     5    1
    29     5     6    1
    30    27    28   ar
    31    28    29   ar
    32    29    24   ar
    33     6     1    1
    34    22    11   ar
    35    21    15   ar
    36    33    34    1
    37     7    10    1
@<TRIPOS>MOLECULE
*****
 34 37 0 0 0
SMALL
GASTEIGER

@<TRIPOS>ATOM
      1 N         142.9876  140.7826  162.0911 N.3     1  UNL1       -0.2689
      2 C         144.1110  139.7938  161.9907 C.3     1  UNL1        0.0741
      3 C         143.9939  138.6168  161.0681 C.3     1  UNL1        0.0369
      4 C         142.7534  138.4287  160.2460 C.3     1  UNL1        0.0747
      5 C         141.6300  139.4176  160.3465 C.3     1  UNL1        0.0369
      6 C         141.7471  140.5945  161.2690 C.3     1  UNL1        0.0741
      7 N         142.6363  137.2518  159.3235 N.am    1  UNL1       -0.2999
      8 C         142.9447  137.4092  157.8641 C.2     1  UNL1        0.2806
      9 O         143.3702  138.7435  157.3271 O.2     1  UNL1       -0.2668
     10 H         142.3571  136.3760  159.6760 H       1  UNL1        0.1498
     11 C         142.8276  136.2321  156.9415 C.ar    1  UNL1        0.2014
     12 C         141.8346  136.2561  155.8176 C.ar    1  UNL1        0.0843
     13 C         141.7175  135.0791  154.8951 C.ar    1  UNL1        0.2018
     14 O         140.7244  135.1030  153.7712 O.2     1  UNL1       -0.2864
     15 C         142.5934  133.8782  155.0965 C.ar    1  UNL1        0.0737
     16 C         142.4763  132.7012  154.1741 C.ar    1  UNL1        0.0085
     17 C         143.3522  131.5004  154.3755 C.ar    1  UNL1        0.0299
     18 C         144.3453  131.4764  155.4995 C.ar    1  UNL1        0.1432
     19 F         145.2212  130.2755  155.7009 F       1  UNL1       -0.2041
     20 C         144.4624  132.6534  156.4220 C.ar    1  UNL1        0.0672
     21 C         143.5865  133.8542  156.2205 C.ar    1  UNL1        0.1508
     22 O         143.7036  135.0313  157.1430 O.2     1  UNL1       -0.4486
     23 C         143.1047  141.9596  163.0136 C.3     1  UNL1        0.0991
     24 C         142.4292  141.4318  167.4312 C.ar    1  UNL1        0.0503
     25 C         141.7330  140.5324  166.4533 C.ar    1  UNL1        0.0144
     26 C         141.9582  140.7084  164.9808 C.ar    1  UNL1       -0.0016
     27 C         142.8795  141.7837  164.4861 C.ar    1  UNL1       -0.0061
     28 C         143.5758  142.6831  165.4640 C.ar    1  UNL1       -0.0016
     29 C         143.3506  142.5071  166.9366 C.ar    1  UNL1        0.0144
     30 C         140.9619  141.9240  171.0856 C.3     1  UNL1        0.0949
     31 C         141.1871  142.0999  169.6131 C.2     1  UNL1        0.2266
     32 O         140.3951  143.1199  168.8499 O.2     1  UNL1       -0.2748
     33 N         142.2041  141.2559  168.9037 N.am    1  UNL1       -0.2839
     34 H         142.7239  140.5864  169.4047 H       1  UNL1        0.1549
@<TRIPOS>BOND
     1    30    31    1
     2    31    32    2
     3    31    33   am
     4    33    24    1
     5    24    25   ar
     6    25    26   ar
     7    26    27   ar
     8    27    23    1
     9    23     1    1
    10     1     2    1
    11     2     3    1
    12     3     4    1
    13     4     7    1
    14     7     8   am
    15     8     9    2
    16     8    11    1
    17    11    12   ar
    18    12    13   ar
    19    13    14    2
    20    13    15   ar
    21    15    16   ar
    22    16    17   ar
    23    17    18   ar
    24    18    19    1
    25    18    20   ar
    26    20    21   ar
    27    21    22   ar
    28     4     5    1
    29     5     6    1
    30    27    28   ar
    31    28    29   ar
    32    29    24   ar
    33     6     1    1
    34    22    11   ar
    35    21    15   ar
    36    33    34    1
    37     7    10    1
@<TRIPOS>MOLECULE
*****
 34 37 0 0 0
SMALL
GASTEIGER

@<TRIPOS>ATOM
      1 N         144.2262  139.6796  162.2959 N.3     1  UNL1       -0.2689
      2 C         143.9901  140.7211  161.2426 C.3     1  UNL1        0.0741
      3 C         143.3616  140.3371  159.9358 C.3     1  UNL1        0.0369
      4 C         142.9693  138.9116  159.6824 C.3     1  UNL1        0.0747
      5 C         143.2054  137.8702  160.7358 C.3     1  UNL1        0.0369
      6 C         143.8338  138.2541  162.0425 C.3     1  UNL1        0.0741
      7 N         142.3408  138.5277  158.3757 N.am    1  UNL1       -0.2999
      8 C         140.8471  138.4719  158.2496 C.2     1  UNL1        0.2806
      9 O         139.9820  138.8000  159.4301 O.2     1  UNL1       -0.2668
     10 H         142.9086  138.3123  157.6009 H       1  UNL1        0.1498
     11 C         140.2187  138.0879  156.9427 C.ar    1  UNL1        0.2014
     12 C         140.7686  136.9351  156.1561 C.ar    1  UNL1        0.0843
     13 C         140.1402  136.5511  154.8494 C.ar    1  UNL1        0.2018
     14 O         140.6901  135.3984  154.0628 O.2     1  UNL1       -0.2864
     15 C         138.9619  137.3199  154.3292 C.ar    1  UNL1        0.0737
     16 C         138.3335  136.9360  153.0224 C.ar    1  UNL1        0.0085
     17 C         137.1552  137.7048  152.5023 C.ar    1  UNL1        0.0299
     18 C         136.6053  138.8575  153.2889 C.ar    1  UNL1        0.1432
     19 F         135.4270  139.6263  152.7686 F       1  UNL1       -0.2041
     20 C         137.2337  139.2415  154.5956 C.ar    1  UNL1        0.0672
     21 C         138.4120  138.4727  155.1158 C.ar    1  UNL1        0.1508
     22 O         139.0404  138.8567  156.4226 O.2     1  UNL1       -0.4486
     23 C         144.8547  140.0636  163.6027 C.3     1  UNL1        0.0991
     24 C         142.3473  140.2577  167.3343 C.ar    1  UNL1        0.0503
     25 C         142.9144  138.9457  166.8792 C.ar    1  UNL1        0.0144
     26 C         143.7502  138.8810  165.6353 C.ar    1  UNL1       -0.0016
     27 C         144.0189  140.1283  164.8466 C.ar    1  UNL1       -0.0061
     28 C         143.4518  141.4402  165.3017 C.ar    1  UNL1       -0.0016
     29 C         142.6160  141.5049  166.5456 C.ar    1  UNL1        0.0144
     30 C         139.1792  140.3881  169.7209 C.3     1  UNL1        0.0949
     31 C         140.0150  140.3234  168.4770 C.2     1  UNL1        0.2266
     32 O         139.3541  140.2598  167.1319 O.2     1  UNL1       -0.2748
     33 N         141.5115  140.3224  168.5782 N.am    1  UNL1       -0.2839
     34 H         141.9452  140.3641  169.4611 H       1  UNL1        0.1549
@<TRIPOS>BOND
     1    30    31    1
     2    31    32    2
     3    31    33   am
     4    33    24    1
     5    24    25   ar
     6    25    26   ar
     7    26    27   ar
     8    27    23    1
     9    23     1    1
    10     1     2    1
    11     2     3    1
    12     3     4    1
    13     4     7    1
    14     7     8   am
    15     8     9    2
    16     8    11    1
    17    11    12   ar
    18    12    13   ar
    19    13    14    2
    20    13    15   ar
    21    15    16   ar
    22    16    17   ar
    23    17    18   ar
    24    18    19    1
    25    18    20   ar
    26    20    21   ar
    27    21    22   ar
    28     4     5    1
    29     5     6    1
    30    27    28   ar
    31    28    29   ar
    32    29    24   ar
    33     6     1    1
    34    22    11   ar
    35    21    15   ar
    36    33    34    1
    37     7    10    1
@<TRIPOS>MOLECULE
*****
 34 37 0 0 0
SMALL
GASTEIGER

@<TRIPOS>ATOM
      1 N         144.1058  141.7839  160.3223 N.3     1  UNL1       -0.2689
      2 C         143.9878  142.0311  158.8475 C.3     1  UNL1        0.0741
      3 C         143.7721  140.8808  157.9092 C.3     1  UNL1        0.0369
      4 C         143.6744  139.4834  158.4456 C.3     1  UNL1        0.0747
      5 C         143.7924  139.2363  159.9204 C.3     1  UNL1        0.0369
      6 C         144.0080  140.3865  160.8587 C.3     1  UNL1        0.0741
      7 N         143.4587  138.3333  157.5073 N.am    1  UNL1       -0.2999
      8 C         142.0854  137.7559  157.3317 C.2     1  UNL1        0.2806
      9 O         140.9278  138.3288  158.0944 O.2     1  UNL1       -0.2668
     10 H         144.2184  137.9573  157.0066 H       1  UNL1        0.1498
     11 C         141.8697  136.6057  156.3933 C.ar    1  UNL1        0.2014
     12 C         141.1871  136.8299  155.0765 C.ar    1  UNL1        0.0843
     13 C         140.9714  135.6797  154.1382 C.ar    1  UNL1        0.2018
     14 O         140.2888  135.9039  152.8214 O.2     1  UNL1       -0.2864
     15 C         141.4384  134.3053  154.5165 C.ar    1  UNL1        0.0737
     16 C         141.2228  133.1552  153.5781 C.ar    1  UNL1        0.0085
     17 C         141.6897  131.7809  153.9565 C.ar    1  UNL1        0.0299
     18 C         142.3724  131.5567  155.2732 C.ar    1  UNL1        0.1432
     19 F         142.8393  130.1823  155.6515 F       1  UNL1       -0.2041
     20 C         142.5880  132.7069  156.2116 C.ar    1  UNL1        0.0672
     21 C         142.1211  134.0812  155.8332 C.ar    1  UNL1        0.1508
     22 O         142.3367  135.2314  156.7716 O.2     1  UNL1       -0.4486
     23 C         144.3214  142.9341  161.2606 C.3     1  UNL1        0.0991
     24 C         140.8227  144.7621  163.4210 C.ar    1  UNL1        0.0503
     25 C         140.5959  143.6809  162.4064 C.ar    1  UNL1        0.0144
     26 C         141.7622  143.0715  161.6862 C.ar    1  UNL1       -0.0016
     27 C         143.1552  143.5434  161.9807 C.ar    1  UNL1       -0.0061
     28 C         143.3820  144.6246  162.9954 C.ar    1  UNL1       -0.0016
     29 C         142.2157  145.2339  163.7155 C.ar    1  UNL1        0.0144
     30 C         137.8914  145.2814  166.0455 C.3     1  UNL1        0.0949
     31 C         139.0577  144.6721  165.3253 C.2     1  UNL1        0.2266
     32 O         139.6251  143.3634  165.7895 O.2     1  UNL1       -0.2748
     33 N         139.6564  145.3714  164.1411 N.am    1  UNL1       -0.2839
     34 H         139.2840  146.2303  163.8365 H       1  UNL1        0.1549
@<TRIPOS>BOND
     1    30    31    1
     2    31    32    2
     3    31    33   am
     4    33    24    1
     5    24    25   ar
     6    25    26   ar
     7    26    27   ar
     8    27    23    1
     9    23     1    1
    10     1     2    1
    11     2     3    1
    12     3     4    1
    13     4     7    1
    14     7     8   am
    15     8     9    2
    16     8    11    1
    17    11    12   ar
    18    12    13   ar
    19    13    14    2
    20    13    15   ar
    21    15    16   ar
    22    16    17   ar
    23    17    18   ar
    24    18    19    1
    25    18    20   ar
    26    20    21   ar
    27    21    22   ar
    28     4     5    1
    29     5     6    1
    30    27    28   ar
    31    28    29   ar
    32    29    24   ar
    33     6     1    1
    34    22    11   ar
    35    21    15   ar
    36    33    34    1
    37     7    10    1
@<TRIPOS>MOLECULE
*****
 34 37 0 0 0
SMALL
GASTEIGER

@<TRIPOS>ATOM
      1 N         141.9886  142.0915  161.3546 N.3     1  UNL1       -0.2689
      2 C         141.4634  142.4245  159.9896 C.3     1  UNL1        0.0741
      3 C         142.4173  142.7267  158.8721 C.3     1  UNL1        0.0369
      4 C         143.8964  142.6958  159.1195 C.3     1  UNL1        0.0747
      5 C         144.4216  142.3628  160.4845 C.3     1  UNL1        0.0369
      6 C         143.4678  142.0607  161.6021 C.3     1  UNL1        0.0741
      7 N         144.8502  142.9979  158.0020 N.am    1  UNL1       -0.2999
      8 C         145.3920  141.8837  157.1565 C.2     1  UNL1        0.2806
      9 O         144.9799  140.4673  157.4284 O.2     1  UNL1       -0.2668
     10 H         145.1207  143.9276  157.8235 H       1  UNL1        0.1498
     11 C         146.3458  142.1859  156.0389 C.ar    1  UNL1        0.2014
     12 C         145.8525  142.8617  154.7939 C.ar    1  UNL1        0.0843
     13 C         146.8063  143.1639  153.6764 C.ar    1  UNL1        0.2018
     14 O         146.3130  143.8396  152.4314 O.2     1  UNL1       -0.2864
     15 C         148.2535  142.7903  153.8038 C.ar    1  UNL1        0.0737
     16 C         149.2073  143.0925  152.6863 C.ar    1  UNL1        0.0085
     17 C         150.6544  142.7189  152.8138 C.ar    1  UNL1        0.0299
     18 C         151.1477  142.0431  154.0587 C.ar    1  UNL1        0.1432
     19 F         152.5949  141.6695  154.1862 F       1  UNL1       -0.2041
     20 C         150.1939  141.7409  155.1763 C.ar    1  UNL1        0.0672
     21 C         148.7468  142.1145  155.0488 C.ar    1  UNL1        0.1508
     22 O         147.7929  141.8123  156.1664 O.2     1  UNL1       -0.4486
     23 C         141.0348  141.7894  162.4721 C.3     1  UNL1        0.0991
     24 C         142.5637  140.0309  166.3218 C.ar    1  UNL1        0.0503
     25 C         142.5157  141.5195  166.1441 C.ar    1  UNL1        0.0144
     26 C         142.0061  142.1057  164.8609 C.ar    1  UNL1       -0.0016
     27 C         141.5444  141.2032  163.7553 C.ar    1  UNL1       -0.0061
     28 C         141.5924  139.7146  163.9330 C.ar    1  UNL1       -0.0016
     29 C         142.1020  139.1284  165.2162 C.ar    1  UNL1        0.0144
     30 C         142.6949  138.8115  170.0961 C.3     1  UNL1        0.0949
     31 C         142.1853  139.3977  168.8129 C.2     1  UNL1        0.2266
     32 O         140.7875  139.9369  168.7376 O.2     1  UNL1       -0.2748
     33 N         143.0733  139.4447  167.6050 N.am    1  UNL1       -0.2839
     34 H         143.9907  139.0908  167.6544 H       1  UNL1        0.1549
@<TRIPOS>BOND
     1    30    31    1
     2    31    32    2
     3    31    33   am
     4    33    24    1
     5    24    25   ar
     6    25    26   ar
     7    26    27   ar
     8    27    23    1
     9    23     1    1
    10     1     2    1
    11     2     3    1
    12     3     4    1
    13     4     7    1
    14     7     8   am
    15     8     9    2
    16     8    11    1
    17    11    12   ar
    18    12    13   ar
    19    13    14    2
    20    13    15   ar
    21    15    16   ar
    22    16    17   ar
    23    17    18   ar
    24    18    19    1
    25    18    20   ar
    26    20    21   ar
    27    21    22   ar
    28     4     5    1
    29     5     6    1
    30    27    28   ar
    31    28    29   ar
    32    29    24   ar
    33     6     1    1
    34    22    11   ar
    35    21    15   ar
    36    33    34    1
    37     7    10    1
@<TRIPOS>MOLECULE
*****
 34 37 0 0 0
SMALL
GASTEIGER

@<TRIPOS>ATOM
      1 N         140.4562  144.4022  160.9612 N.3     1  UNL1       -0.2689
      2 C         140.1239  144.8237  159.5606 C.3     1  UNL1        0.0741
      3 C         141.1315  144.6436  158.4641 C.3     1  UNL1        0.0369
      4 C         142.4714  144.0419  158.7682 C.3     1  UNL1        0.0747
      5 C         142.8038  143.6204  160.1689 C.3     1  UNL1        0.0369
      6 C         141.7962  143.8005  161.2654 C.3     1  UNL1        0.0741
      7 N         143.4790  143.8619  157.6718 N.am    1  UNL1       -0.2999
      8 C         143.8934  142.4823  157.2531 C.2     1  UNL1        0.2806
      9 O         143.3002  141.2829  157.9309 O.2     1  UNL1       -0.2668
     10 H         143.8684  144.6491  157.2269 H       1  UNL1        0.1498
     11 C         144.9010  142.3023  156.1565 C.ar    1  UNL1        0.2014
     12 C         144.4523  142.2553  154.7260 C.ar    1  UNL1        0.0843
     13 C         145.4598  142.0752  153.6295 C.ar    1  UNL1        0.2018
     14 O         145.0111  142.0282  152.1989 O.2     1  UNL1       -0.2864
     15 C         146.9162  141.9422  153.9635 C.ar    1  UNL1        0.0737
     16 C         147.9237  141.7621  152.8669 C.ar    1  UNL1        0.0085
     17 C         149.3799  141.6291  153.2010 C.ar    1  UNL1        0.0299
     18 C         149.8286  141.6762  154.6315 C.ar    1  UNL1        0.1432
     19 F         151.2850  141.5431  154.9655 F       1  UNL1       -0.2041
     20 C         148.8211  141.8562  155.7280 C.ar    1  UNL1        0.0672
     21 C         147.3649  141.9892  155.3940 C.ar    1  UNL1        0.1508
     22 O         146.3572  142.1693  156.4906 O.2     1  UNL1       -0.4486
     23 C         139.4487  144.5823  162.0577 C.3     1  UNL1        0.0991
     24 C         138.2343  141.0709  164.5966 C.ar    1  UNL1        0.0503
     25 C         139.3056  142.0063  165.0733 C.ar    1  UNL1        0.0144
     26 C         139.7104  143.1767  164.2270 C.ar    1  UNL1       -0.0016
     27 C         139.0439  143.4118  162.9040 C.ar    1  UNL1       -0.0061
     28 C         137.9725  142.4765  162.4273 C.ar    1  UNL1       -0.0016
     29 C         137.5678  141.3060  163.2736 C.ar    1  UNL1        0.0144
     30 C         138.1769  137.4362  166.1888 C.3     1  UNL1        0.0949
     31 C         138.5817  138.6066  165.3425 C.2     1  UNL1        0.2266
     32 O         139.7387  138.4832  164.3958 O.2     1  UNL1       -0.2748
     33 N         137.8295  139.9005  165.4429 N.am    1  UNL1       -0.2839
     34 H         137.0702  139.9815  166.0642 H       1  UNL1        0.1549
@<TRIPOS>BOND
     1    30    31    1
     2    31    32    2
     3    31    33   am
     4    33    24    1
     5    24    25   ar
     6    25    26   ar
     7    26    27   ar
     8    27    23    1
     9    23     1    1
    10     1     2    1
    11     2     3    1
    12     3     4    1
    13     4     7    1
    14     7     8   am
    15     8     9    2
    16     8    11    1
    17    11    12   ar
    18    12    13   ar
    19    13    14    2
    20    13    15   ar
    21    15    16   ar
    22    16    17   ar
    23    17    18   ar
    24    18    19    1
    25    18    20   ar
    26    20    21   ar
    27    21    22   ar
    28     4     5    1
    29     5     6    1
    30    27    28   ar
    31    28    29   ar
    32    29    24   ar
    33     6     1    1
    34    22    11   ar
    35    21    15   ar
    36    33    34    1
    37     7    10    1
@<TRIPOS>MOLECULE
*****
 34 37 0 0 0
SMALL
GASTEIGER

@<TRIPOS>ATOM
      1 N         144.3260  140.1473  162.9378 N.3     1  UNL1       -0.2689
      2 C         144.3546  140.9698  161.6838 C.3     1  UNL1        0.0741
      3 C         144.0054  140.3421  160.3669 C.3     1  UNL1        0.0369
      4 C         143.6276  138.8918  160.3042 C.3     1  UNL1        0.0747
      5 C         143.5990  138.0693  161.5582 C.3     1  UNL1        0.0369
      6 C         143.9482  138.6970  162.8750 C.3     1  UNL1        0.0741
      7 N         143.2784  138.2641  158.9874 N.am    1  UNL1       -0.2999
      8 C         141.8571  138.2683  158.5080 C.2     1  UNL1        0.2806
      9 O         140.7850  138.9002  159.3453 O.2     1  UNL1       -0.2668
     10 H         143.9820  137.8494  158.4377 H       1  UNL1        0.1498
     11 C         141.5079  137.6406  157.1911 C.ar    1  UNL1        0.2014
     12 C         140.4838  138.2822  156.3025 C.ar    1  UNL1        0.0843
     13 C         140.1346  137.6545  154.9857 C.ar    1  UNL1        0.2018
     14 O         139.1106  138.2962  154.0970 O.2     1  UNL1       -0.2864
     15 C         140.8095  136.3852  154.5574 C.ar    1  UNL1        0.0737
     16 C         140.4603  135.7575  153.2406 C.ar    1  UNL1        0.0085
     17 C         141.1351  134.4882  152.8124 C.ar    1  UNL1        0.0299
     18 C         142.1592  133.8465  153.7010 C.ar    1  UNL1        0.1432
     19 F         142.8341  132.5772  153.2727 F       1  UNL1       -0.2041
     20 C         142.5084  134.4742  155.0178 C.ar    1  UNL1        0.0672
     21 C         141.8335  135.7435  155.4460 C.ar    1  UNL1        0.1508
     22 O         142.1827  136.3713  156.7629 O.2     1  UNL1       -0.4486
     23 C         144.6753  140.7750  164.2546 C.3     1  UNL1        0.0991
     24 C         141.4664  141.4919  167.3269 C.ar    1  UNL1        0.0503
     25 C         141.8526  142.5861  166.3764 C.ar    1  UNL1        0.0144
     26 C         142.9222  142.3472  165.3523 C.ar    1  UNL1       -0.0016
     27 C         143.6056  141.0140  165.2787 C.ar    1  UNL1       -0.0061
     28 C         143.2194  139.9197  166.2292 C.ar    1  UNL1       -0.0016
     29 C         142.1498  140.1587  167.2533 C.ar    1  UNL1        0.0144
     30 C         139.6283  142.7842  170.5982 C.3     1  UNL1        0.0949
     31 C         140.6980  142.5452  169.5741 C.2     1  UNL1        0.2266
     32 O         142.0689  143.1206  169.7732 O.2     1  UNL1       -0.2748
     33 N         140.3967  141.7309  168.3510 N.am    1  UNL1       -0.2839
     34 H         139.4970  141.3532  168.2204 H       1  UNL1        0.1549
@<TRIPOS>BOND
     1    30    31    1
     2    31    32    2
     3    31    33   am
     4    33    24    1
     5    24    25   ar
     6    25    26   ar
     7    26    27   ar
     8    27    23    1
     9    23     1    1
    10     1     2    1
    11     2     3    1
    12     3     4    1
    13     4     7    1
    14     7     8   am
    15     8     9    2
    16     8    11    1
    17    11    12   ar
    18    12    13   ar
    19    13    14    2
    20    13    15   ar
    21    15    16   ar
    22    16    17   ar
    23    17    18   ar
    24    18    19    1
    25    18    20   ar
    26    20    21   ar
    27    21    22   ar
    28     4     5    1
    29     5     6    1
    30    27    28   ar
    31    28    29   ar
    32    29    24   ar
    33     6     1    1
    34    22    11   ar
    35    21    15   ar
    36    33    34    1
    37     7    10    1
