@<TRIPOS>MOLECULE
*****
 21 23 0 0 0
SMALL
GASTEIGER

@<TRIPOS>ATOM
      1 C         140.9750  142.4030  167.7686 C.3     1  UNL1        0.1908
      2 F         137.9058  139.4048  164.8376 F       1  UNL1       -0.2033
      3 C         138.5212  140.7414  165.1289 C.ar    1  UNL1        0.1504
      4 C         139.4404  140.9040  166.3030 C.ar    1  UNL1        0.0297
      5 C         140.0558  142.2405  166.5944 C.ar    1  UNL1        0.0196
      6 C         139.7520  143.4145  165.7116 C.ar    1  UNL1        0.0002
      7 C         138.8328  143.2520  164.5374 C.ar    1  UNL1        0.0135
      8 C         138.2174  141.9154  164.2461 C.ar    1  UNL1        0.0850
      9 CL        137.2981  141.7529  163.0719 Cl      1  UNL1       -0.0799
     10 C         140.4171  142.7632  169.1136 C.3     1  UNL1        0.0758
     11 C         140.3345  144.0221  169.9251 C.3     1  UNL1        0.0739
     12 N         139.6282  143.2727  171.0157 N.3     1  UNL1       -0.2972
     13 C         139.7108  142.0139  170.2042 C.3     1  UNL1        0.0739
     14 H         138.6759  143.5929  171.1917 H       1  UNL1        0.1233
     15 O         142.4521  142.2054  167.5977 O.3     1  UNL1       -0.4747
     16 C         142.9644  141.1279  166.6885 C.ar    1  UNL1        0.1389
     17 C         143.5784  141.4895  165.3686 C.ar    1  UNL1        0.0369
     18 C         144.0907  140.4121  164.4594 C.ar    1  UNL1        0.0031
     19 C         143.9889  138.9731  164.8701 C.ar    1  UNL1        0.0002
     20 C         143.3749  138.6114  166.1899 C.ar    1  UNL1        0.0031
     21 C         142.8626  139.6888  167.0992 C.ar    1  UNL1        0.0369
@<TRIPOS>BOND
     1     2     3    1
     2     3     4   ar
     3     4     5   ar
     4     5     1    1
     5     1    15    1
     6    15    16    1
     7    16    17   ar
     8    17    18   ar
     9    18    19   ar
    10    19    20   ar
    11    20    21   ar
    12     1    10    1
    13    10    11    1
    14    11    12    1
    15    12    13    1
    16     5     6   ar
    17     6     7   ar
    18     7     8   ar
    19     8     9    1
    20     8     3   ar
    21    21    16   ar
    22    13    10    1
    23    12    14    1
@<TRIPOS>MOLECULE
*****
 21 23 0 0 0
SMALL
GASTEIGER

@<TRIPOS>ATOM
      1 C         140.9532  142.4179  167.7599 C.3     1  UNL1        0.1908
      2 F         138.4711  144.5326  163.7142 F       1  UNL1       -0.2033
      3 C         138.7934  143.3361  164.5596 C.ar    1  UNL1        0.1504
      4 C         139.7121  143.4752  165.7371 C.ar    1  UNL1        0.0297
      5 C         140.0344  142.2787  166.5824 C.ar    1  UNL1        0.0196
      6 C         139.4379  140.9431  166.2503 C.ar    1  UNL1        0.0002
      7 C         138.5191  140.8040  165.0728 C.ar    1  UNL1        0.0135
      8 C         138.1969  142.0005  164.2275 C.ar    1  UNL1        0.0850
      9 CL        137.2781  141.8613  163.0499 Cl      1  UNL1       -0.0799
     10 C         140.3965  142.7659  169.1086 C.3     1  UNL1        0.0758
     11 C         139.6808  142.0092  170.1882 C.3     1  UNL1        0.0739
     12 N         139.6091  143.2581  171.0159 N.3     1  UNL1       -0.2972
     13 C         140.3247  144.0147  169.9364 C.3     1  UNL1        0.0739
     14 H         140.1214  143.2042  171.8963 H       1  UNL1        0.1233
     15 O         142.4286  142.2090  167.5888 O.3     1  UNL1       -0.4747
     16 C         142.9326  141.1046  166.7075 C.ar    1  UNL1        0.1389
     17 C         143.5383  141.4268  165.3736 C.ar    1  UNL1        0.0369
     18 C         144.0422  140.3225  164.4924 C.ar    1  UNL1        0.0031
     19 C         143.9403  138.8961  164.9450 C.ar    1  UNL1        0.0002
     20 C         143.3346  138.5740  166.2789 C.ar    1  UNL1        0.0031
     21 C         142.8307  139.6782  167.1601 C.ar    1  UNL1        0.0369
@<TRIPOS>BOND
     1     2     3    1
     2     3     4   ar
     3     4     5   ar
     4     5     1    1
     5     1    15    1
     6    15    16    1
     7    16    17   ar
     8    17    18   ar
     9    18    19   ar
    10    19    20   ar
    11    20    21   ar
    12     1    10    1
    13    10    11    1
    14    11    12    1
    15    12    13    1
    16     5     6   ar
    17     6     7   ar
    18     7     8   ar
    19     8     9    1
    20     8     3   ar
    21    21    16   ar
    22    13    10    1
    23    12    14    1
@<TRIPOS>MOLECULE
*****
 21 23 0 0 0
SMALL
GASTEIGER

@<TRIPOS>ATOM
      1 C         139.9946  141.4455  164.9576 C.3     1  UNL1        0.1908
      2 F         140.7693  143.9589  169.4390 F       1  UNL1       -0.2033
      3 C         140.4368  142.6982  168.6973 C.ar    1  UNL1        0.1504
      4 C         140.3820  142.7022  167.1983 C.ar    1  UNL1        0.0297
      5 C         140.0495  141.4415  166.4566 C.ar    1  UNL1        0.0196
      6 C         139.7719  140.1768  167.2139 C.ar    1  UNL1        0.0002
      7 C         139.8268  140.1728  168.7128 C.ar    1  UNL1        0.0135
      8 C         140.1593  141.4335  169.4545 C.ar    1  UNL1        0.0850
      9 CL        140.2141  141.4294  170.9536 Cl      1  UNL1       -0.0799
     10 C         138.6693  141.4198  164.2555 C.3     1  UNL1        0.0758
     11 C         137.5894  142.4268  163.9909 C.3     1  UNL1        0.0739
     12 N         136.7950  141.3834  163.2627 N.3     1  UNL1       -0.2972
     13 C         137.8748  140.3765  163.5274 C.3     1  UNL1        0.0739
     14 H         136.6483  141.5865  162.2740 H       1  UNL1        0.1233
     15 O         141.2650  141.4753  164.1606 O.3     1  UNL1       -0.4747
     16 C         142.1446  142.6899  164.1964 C.ar    1  UNL1        0.1389
     17 C         141.7086  143.9520  163.5130 C.ar    1  UNL1        0.0369
     18 C         142.5880  145.1666  163.5488 C.ar    1  UNL1        0.0031
     19 C         143.9035  145.1191  164.2679 C.ar    1  UNL1        0.0002
     20 C         144.3395  143.8570  164.9514 C.ar    1  UNL1        0.0031
     21 C         143.4600  142.6424  164.9156 C.ar    1  UNL1        0.0369
@<TRIPOS>BOND
     1     2     3    1
     2     3     4   ar
     3     4     5   ar
     4     5     1    1
     5     1    15    1
     6    15    16    1
     7    16    17   ar
     8    17    18   ar
     9    18    19   ar
    10    19    20   ar
    11    20    21   ar
    12     1    10    1
    13    10    11    1
    14    11    12    1
    15    12    13    1
    16     5     6   ar
    17     6     7   ar
    18     7     8   ar
    19     8     9    1
    20     8     3   ar
    21    21    16   ar
    22    13    10    1
    23    12    14    1
@<TRIPOS>MOLECULE
*****
 21 23 0 0 0
SMALL
GASTEIGER

@<TRIPOS>ATOM
      1 C         141.9212  141.7327  167.6910 C.3     1  UNL1        0.1908
      2 F         138.2688  144.6637  165.4397 F       1  UNL1       -0.2033
      3 C         139.6357  144.0465  165.4166 C.ar    1  UNL1        0.1504
      4 C         140.0950  143.1982  166.5653 C.ar    1  UNL1        0.0297
      5 C         141.4619  142.5810  166.5423 C.ar    1  UNL1        0.0196
      6 C         142.3695  142.8120  165.3706 C.ar    1  UNL1        0.0002
      7 C         141.9102  143.6602  164.2220 C.ar    1  UNL1        0.0135
      8 C         140.5433  144.2775  164.2450 C.ar    1  UNL1        0.0850
      9 CL        140.0840  145.1258  163.0962 Cl      1  UNL1       -0.0799
     10 C         142.4139  142.3799  168.9513 C.3     1  UNL1        0.0758
     11 C         143.7191  142.4059  169.6902 C.3     1  UNL1        0.0739
     12 N         143.1107  143.2952  170.7336 N.3     1  UNL1       -0.2972
     13 C         141.8056  143.2693  169.9948 C.3     1  UNL1        0.0739
     14 H         143.5373  144.2198  170.7929 H       1  UNL1        0.1233
     15 O         141.8878  140.2372  167.5794 O.3     1  UNL1       -0.4747
     16 C         140.7754  139.5657  166.8299 C.ar    1  UNL1        0.1389
     17 C         139.3713  139.6323  167.3532 C.ar    1  UNL1        0.0369
     18 C         138.2589  138.9608  166.6038 C.ar    1  UNL1        0.0031
     19 C         138.5507  138.2228  165.3310 C.ar    1  UNL1        0.0002
     20 C         139.9549  138.1562  164.8077 C.ar    1  UNL1        0.0031
     21 C         141.0672  138.8277  165.5571 C.ar    1  UNL1        0.0369
@<TRIPOS>BOND
     1     2     3    1
     2     3     4   ar
     3     4     5   ar
     4     5     1    1
     5     1    15    1
     6    15    16    1
     7    16    17   ar
     8    17    18   ar
     9    18    19   ar
    10    19    20   ar
    11    20    21   ar
    12     1    10    1
    13    10    11    1
    14    11    12    1
    15    12    13    1
    16     5     6   ar
    17     6     7   ar
    18     7     8   ar
    19     8     9    1
    20     8     3   ar
    21    21    16   ar
    22    13    10    1
    23    12    14    1
@<TRIPOS>MOLECULE
*****
 21 23 0 0 0
SMALL
GASTEIGER

@<TRIPOS>ATOM
      1 C         142.8945  141.2244  164.8080 C.3     1  UNL1        0.1908
      2 F         142.9969  143.1007  169.6524 F       1  UNL1       -0.2033
      3 C         142.8814  141.9379  168.7119 C.ar    1  UNL1        0.1504
      4 C         142.9457  142.1625  167.2302 C.ar    1  UNL1        0.0297
      5 C         142.8302  140.9997  166.2897 C.ar    1  UNL1        0.0196
      6 C         142.6504  139.6124  166.8309 C.ar    1  UNL1        0.0002
      7 C         142.5861  139.3878  168.3125 C.ar    1  UNL1        0.0135
      8 C         142.7016  140.5506  169.2531 C.ar    1  UNL1        0.0850
      9 CL        142.6372  140.3260  170.7348 Cl      1  UNL1       -0.0799
     10 C         144.2140  141.4915  164.1465 C.3     1  UNL1        0.0758
     11 C         145.3948  140.6521  163.7576 C.3     1  UNL1        0.0739
     12 N         146.0800  141.8694  163.2111 N.3     1  UNL1       -0.2972
     13 C         144.8993  142.7087  163.5999 C.3     1  UNL1        0.0739
     14 H         146.2530  141.8340  162.2065 H       1  UNL1        0.1233
     15 O         141.6393  141.1818  163.9878 O.3     1  UNL1       -0.4747
     16 C         140.5383  142.1663  164.2499 C.ar    1  UNL1        0.1389
     17 C         139.1190  141.6931  164.3575 C.ar    1  UNL1        0.0369
     18 C         138.0180  142.6775  164.6196 C.ar    1  UNL1        0.0031
     19 C         138.3364  144.1351  164.7741 C.ar    1  UNL1        0.0002
     20 C         139.7557  144.6083  164.6665 C.ar    1  UNL1        0.0031
     21 C         140.8567  143.6239  164.4044 C.ar    1  UNL1        0.0369
@<TRIPOS>BOND
     1     2     3    1
     2     3     4   ar
     3     4     5   ar
     4     5     1    1
     5     1    15    1
     6    15    16    1
     7    16    17   ar
     8    17    18   ar
     9    18    19   ar
    10    19    20   ar
    11    20    21   ar
    12     1    10    1
    13    10    11    1
    14    11    12    1
    15    12    13    1
    16     5     6   ar
    17     6     7   ar
    18     7     8   ar
    19     8     9    1
    20     8     3   ar
    21    21    16   ar
    22    13    10    1
    23    12    14    1
@<TRIPOS>MOLECULE
*****
 21 23 0 0 0
SMALL
GASTEIGER

@<TRIPOS>ATOM
      1 C         139.8854  139.8977  167.6569 C.3     1  UNL1        0.1908
      2 F         144.3385  138.7491  165.2379 F       1  UNL1       -0.2033
      3 C         143.2729  139.7427  165.5951 C.ar    1  UNL1        0.1504
      4 C         142.1120  139.3235  166.4474 C.ar    1  UNL1        0.0297
      5 C         141.0465  140.3170  166.8046 C.ar    1  UNL1        0.0196
      6 C         141.1419  141.7297  166.3095 C.ar    1  UNL1        0.0002
      7 C         142.3028  142.1489  165.4573 C.ar    1  UNL1        0.0135
      8 C         143.3684  141.1553  165.1001 C.ar    1  UNL1        0.0850
      9 CL        144.5294  141.5746  164.2477 Cl      1  UNL1       -0.0799
     10 C         139.9740  140.0054  169.1504 C.3     1  UNL1        0.0758
     11 C         139.0368  140.4340  170.2404 C.3     1  UNL1        0.0739
     12 N         140.0992  140.1576  171.2625 N.3     1  UNL1       -0.2972
     13 C         141.0364  139.7290  170.1727 C.3     1  UNL1        0.0739
     14 H         139.8603  139.4167  171.9216 H       1  UNL1        0.1233
     15 O         138.6360  139.3708  167.0157 O.3     1  UNL1       -0.4747
     16 C         138.5801  139.1771  165.5293 C.ar    1  UNL1        0.1389
     17 C         138.9720  137.8593  164.9294 C.ar    1  UNL1        0.0369
     18 C         138.9161  137.6656  163.4431 C.ar    1  UNL1        0.0031
     19 C         138.4683  138.7896  162.5566 C.ar    1  UNL1        0.0002
     20 C         138.0763  140.1074  163.1564 C.ar    1  UNL1        0.0031
     21 C         138.1322  140.3012  164.6428 C.ar    1  UNL1        0.0369
@<TRIPOS>BOND
     1     2     3    1
     2     3     4   ar
     3     4     5   ar
     4     5     1    1
     5     1    15    1
     6    15    16    1
     7    16    17   ar
     8    17    18   ar
     9    18    19   ar
    10    19    20   ar
    11    20    21   ar
    12     1    10    1
    13    10    11    1
    14    11    12    1
    15    12    13    1
    16     5     6   ar
    17     6     7   ar
    18     7     8   ar
    19     8     9    1
    20     8     3   ar
    21    21    16   ar
    22    13    10    1
    23    12    14    1
@<TRIPOS>MOLECULE
*****
 21 23 0 0 0
SMALL
GASTEIGER

@<TRIPOS>ATOM
      1 C         142.9275  141.0276  165.0191 C.3     1  UNL1        0.1908
      2 F         142.6379  143.2572  169.7037 F       1  UNL1       -0.2033
      3 C         142.6853  142.0223  168.8534 C.ar    1  UNL1        0.1504
      4 C         142.7827  142.1423  167.3615 C.ar    1  UNL1        0.0297
      5 C         142.8301  140.9075  166.5112 C.ar    1  UNL1        0.0196
      6 C         142.7802  139.5527  167.1529 C.ar    1  UNL1        0.0002
      7 C         142.6828  139.4327  168.6449 C.ar    1  UNL1        0.0135
      8 C         142.6354  140.6675  169.4952 C.ar    1  UNL1        0.0850
      9 CL        142.5381  140.5474  170.9872 Cl      1  UNL1       -0.0799
     10 C         144.2473  141.3350  164.3760 C.3     1  UNL1        0.0758
     11 C         145.0678  142.5751  164.1786 C.3     1  UNL1        0.0739
     12 N         146.1137  141.7697  163.4665 N.3     1  UNL1       -0.2972
     13 C         145.2933  140.5296  163.6638 C.3     1  UNL1        0.0739
     14 H         147.0176  141.7505  163.9387 H       1  UNL1        0.1233
     15 O         141.7050  140.8402  164.1703 O.3     1  UNL1       -0.4747
     16 C         140.6067  139.9269  164.6281 C.ar    1  UNL1        0.1389
     17 C         140.7062  138.4510  164.3795 C.ar    1  UNL1        0.0369
     18 C         139.6080  137.5376  164.8374 C.ar    1  UNL1        0.0031
     19 C         138.4103  138.1001  165.5438 C.ar    1  UNL1        0.0002
     20 C         138.3108  139.5760  165.7924 C.ar    1  UNL1        0.0031
     21 C         139.4091  140.4894  165.3346 C.ar    1  UNL1        0.0369
@<TRIPOS>BOND
     1     2     3    1
     2     3     4   ar
     3     4     5   ar
     4     5     1    1
     5     1    15    1
     6    15    16    1
     7    16    17   ar
     8    17    18   ar
     9    18    19   ar
    10    19    20   ar
    11    20    21   ar
    12     1    10    1
    13    10    11    1
    14    11    12    1
    15    12    13    1
    16     5     6   ar
    17     6     7   ar
    18     7     8   ar
    19     8     9    1
    20     8     3   ar
    21    21    16   ar
    22    13    10    1
    23    12    14    1
@<TRIPOS>MOLECULE
*****
 21 23 0 0 0
SMALL
GASTEIGER

@<TRIPOS>ATOM
      1 C         141.2034  139.9794  164.7201 C.3     1  UNL1        0.1908
      2 F         138.4900  140.0056  169.1515 F       1  UNL1       -0.2033
      3 C         139.8079  139.9900  168.4353 C.ar    1  UNL1        0.1504
      4 C         139.8467  139.9925  166.9359 C.ar    1  UNL1        0.0297
      5 C         141.1646  139.9769  166.2197 C.ar    1  UNL1        0.0196
      6 C         142.4437  139.9588  167.0030 C.ar    1  UNL1        0.0002
      7 C         142.4049  139.9564  168.5024 C.ar    1  UNL1        0.0135
      8 C         141.0870  139.9719  169.2186 C.ar    1  UNL1        0.0850
      9 CL        141.0482  139.9695  170.7182 Cl      1  UNL1       -0.0799
     10 C         141.2510  138.6818  163.9690 C.3     1  UNL1        0.0758
     11 C         141.0213  137.2423  164.3229 C.3     1  UNL1        0.0739
     12 N         141.3183  136.8469  162.9068 N.3     1  UNL1       -0.2972
     13 C         141.5480  138.2863  162.5529 C.3     1  UNL1        0.0739
     14 H         140.5307  136.4190  162.4200 H       1  UNL1        0.1233
     15 O         141.1945  141.2793  163.9718 O.3     1  UNL1       -0.4747
     16 C         140.0834  142.2630  164.1905 C.ar    1  UNL1        0.1389
     17 C         140.3738  143.5961  164.8139 C.ar    1  UNL1        0.0369
     18 C         139.2628  144.5798  165.0326 C.ar    1  UNL1        0.0031
     19 C         137.8614  144.2305  164.6278 C.ar    1  UNL1        0.0002
     20 C         137.5709  142.8975  164.0044 C.ar    1  UNL1        0.0031
     21 C         138.6819  141.9138  163.7857 C.ar    1  UNL1        0.0369
@<TRIPOS>BOND
     1     2     3    1
     2     3     4   ar
     3     4     5   ar
     4     5     1    1
     5     1    15    1
     6    15    16    1
     7    16    17   ar
     8    17    18   ar
     9    18    19   ar
    10    19    20   ar
    11    20    21   ar
    12     1    10    1
    13    10    11    1
    14    11    12    1
    15    12    13    1
    16     5     6   ar
    17     6     7   ar
    18     7     8   ar
    19     8     9    1
    20     8     3   ar
    21    21    16   ar
    22    13    10    1
    23    12    14    1
@<TRIPOS>MOLECULE
*****
 21 23 0 0 0
SMALL
GASTEIGER

@<TRIPOS>ATOM
      1 C         141.0255  139.9499  164.8137 C.3     1  UNL1        0.1908
      2 F         143.0785  140.0646  169.5857 F       1  UNL1       -0.2033
      3 C         141.8766  140.0205  168.6894 C.ar    1  UNL1        0.1504
      4 C         142.0520  140.0073  167.1998 C.ar    1  UNL1        0.0297
      5 C         140.8501  139.9631  166.3034 C.ar    1  UNL1        0.0196
      6 C         139.4728  139.9322  166.8967 C.ar    1  UNL1        0.0002
      7 C         139.2974  139.9454  168.3863 C.ar    1  UNL1        0.0135
      8 C         140.4993  139.9895  169.2826 C.ar    1  UNL1        0.0850
      9 CL        140.3238  140.0027  170.7723 Cl      1  UNL1       -0.0799
     10 C         141.1128  138.6443  164.0804 C.3     1  UNL1        0.0758
     11 C         141.2205  138.2424  162.6392 C.3     1  UNL1        0.0739
     12 N         141.2362  136.7979  163.0433 N.3     1  UNL1       -0.2972
     13 C         141.1286  137.1998  164.4843 C.3     1  UNL1        0.0739
     14 H         142.1011  136.3098  162.8106 H       1  UNL1        0.1233
     15 O         141.1137  141.2423  164.0574 O.3     1  UNL1       -0.4747
     16 C         140.0277  142.2678  164.1957 C.ar    1  UNL1        0.1389
     17 C         138.7518  142.1180  163.4214 C.ar    1  UNL1        0.0369
     18 C         137.6658  143.1435  163.5597 C.ar    1  UNL1        0.0031
     19 C         137.8559  144.3187  164.4722 C.ar    1  UNL1        0.0002
     20 C         139.1318  144.4685  165.2465 C.ar    1  UNL1        0.0031
     21 C         140.2178  143.4430  165.1082 C.ar    1  UNL1        0.0369
@<TRIPOS>BOND
     1     2     3    1
     2     3     4   ar
     3     4     5   ar
     4     5     1    1
     5     1    15    1
     6    15    16    1
     7    16    17   ar
     8    17    18   ar
     9    18    19   ar
    10    19    20   ar
    11    20    21   ar
    12     1    10    1
    13    10    11    1
    14    11    12    1
    15    12    13    1
    16     5     6   ar
    17     6     7   ar
    18     7     8   ar
    19     8     9    1
    20     8     3   ar
    21    21    16   ar
    22    13    10    1
    23    12    14    1
