@<TRIPOS>MOLECULE
*****
 32 35 0 0 0
SMALL
GASTEIGER

@<TRIPOS>ATOM
      1 O         137.0659  141.5250  162.5679 O.3     1  UNL1       -0.4517
      2 C         137.9006  142.3757  163.4788 C.ar    1  UNL1        0.2312
      3 N         138.0405  143.8453  163.2131 N.ar    1  UNL1       -0.1892
      4 C         138.8752  144.6960  164.1239 C.ar    1  UNL1        0.2029
      5 N         139.5700  144.0770  165.3004 N.ar    1  UNL1       -0.2046
      6 C         139.4301  142.6074  165.5661 C.ar    1  UNL1        0.1715
      7 C         138.5954  141.7568  164.6553 C.ar    1  UNL1        0.1098
      8 C         138.6422  140.3470  165.1657 C.ar    1  UNL1        0.1283
      9 N         139.5058  140.3264  166.3919 N.ar    1  UNL1       -0.1619
     10 N         139.9927  141.7234  166.6394 N.ar    1  UNL1       -0.2111
     11 C         140.8856  142.1599  167.7629 C.ar    1  UNL1        0.0949
     12 C         140.3064  142.8780  168.9456 C.ar    1  UNL1        0.0201
     13 C         141.1993  143.3144  170.0691 C.ar    1  UNL1        0.0016
     14 C         142.6714  143.0327  170.0100 C.ar    1  UNL1        0.0010
     15 C         143.2506  142.3147  168.8273 C.ar    1  UNL1        0.0129
     16 C         142.3577  141.8782  167.7037 C.ar    1  UNL1        0.0753
     17 CL        142.9370  141.1601  166.5211 Cl      1  UNL1       -0.0807
     18 C         137.7214  140.7133  161.4902 C.3     1  UNL1        0.2722
     19 C         138.6385  141.3757  160.5052 C.2     1  UNL1        0.2701
     20 O         139.7551  140.5951  159.8778 O.2     1  UNL1       -0.2707
     21 N         138.4389  142.8188  160.1478 N.am    1  UNL1       -0.2663
     22 H         137.7060  143.3311  160.5596 H       1  UNL1        0.1564
     23 C         139.3559  143.4812  159.1629 C.ar    1  UNL1        0.1342
     24 C         140.3722  144.4775  159.6369 C.ar    1  UNL1        0.0342
     25 C         141.2892  145.1400  158.6520 C.ar    1  UNL1        0.0001
     26 C         141.1901  144.8061  157.1929 C.ar    1  UNL1       -0.0026
     27 C         142.1071  145.4686  156.2080 C.3     1  UNL1        0.0327
     28 C         140.1739  143.8098  156.7188 C.ar    1  UNL1        0.0960
     29 N         139.2568  143.1474  157.7039 N.ar    1  UNL1       -0.2293
     30 C         137.4598  139.2392  161.3975 C.3     1  UNL1        0.1952
     31 C         139.5617  138.0140  162.3092 C.3     1  UNL1        0.1743
     32 O         138.0914  138.3019  162.3836 O.3     1  UNL1       -0.3467
@<TRIPOS>BOND
     1    31    32    1
     2    32    30    1
     3    18    30    1
     4    18     1    1
     5     1     2    1
     6     2     3   ar
     7     3     4   ar
     8     4     5   ar
     9     5     6   ar
    10     6     7   ar
    11     7     8   ar
    12     8     9   ar
    13     9    10   ar
    14    10    11    1
    15    11    12   ar
    16    12    13   ar
    17    13    14   ar
    18    14    15   ar
    19    15    16   ar
    20    16    17    1
    21    18    19    1
    22    19    20    2
    23    19    21   am
    24    21    23    1
    25    23    24   ar
    26    24    25   ar
    27    25    26   ar
    28    26    27    1
    29    26    28   ar
    30    28    29   ar
    31     7     2   ar
    32    16    11   ar
    33    29    23   ar
    34    10     6   ar
    35    21    22    1
@<TRIPOS>MOLECULE
*****
 32 35 0 0 0
SMALL
GASTEIGER

@<TRIPOS>ATOM
      1 O         141.6814  138.5602  157.6297 O.3     1  UNL1       -0.4517
      2 C         141.7571  138.3943  159.1186 C.ar    1  UNL1        0.2312
      3 N         143.0425  137.9641  159.7609 N.ar    1  UNL1       -0.1892
      4 C         143.1182  137.7983  161.2498 C.ar    1  UNL1        0.2029
      5 N         141.9085  138.0626  162.0963 N.ar    1  UNL1       -0.2046
      6 C         140.6231  138.4929  161.4540 C.ar    1  UNL1        0.1715
      7 C         140.5474  138.6587  159.9652 C.ar    1  UNL1        0.1098
      8 C         139.1539  139.0914  159.6172 C.ar    1  UNL1        0.1283
      9 N         138.3684  139.1930  160.8910 N.ar    1  UNL1       -0.1619
     10 N         139.2764  138.8230  162.0262 N.ar    1  UNL1       -0.2111
     11 C         138.9032  138.7892  163.4787 C.ar    1  UNL1        0.0949
     12 C         138.9000  137.4865  164.2221 C.ar    1  UNL1        0.0201
     13 C         138.5268  137.4527  165.6746 C.ar    1  UNL1        0.0016
     14 C         138.1569  138.7217  166.3836 C.ar    1  UNL1        0.0010
     15 C         138.1601  140.0244  165.6402 C.ar    1  UNL1        0.0129
     16 C         138.5333  140.0582  164.1878 C.ar    1  UNL1        0.0753
     17 CL        138.5365  141.3611  163.4444 Cl      1  UNL1       -0.0807
     18 C         142.9200  138.4193  156.7954 C.3     1  UNL1        0.2722
     19 C         143.4522  137.0557  156.4675 C.2     1  UNL1        0.2701
     20 O         144.6841  136.9144  155.6235 O.2     1  UNL1       -0.2707
     21 N         142.7524  135.8334  156.9836 N.am    1  UNL1       -0.2663
     22 H         141.9438  135.9261  157.5375 H       1  UNL1        0.1564
     23 C         143.2845  134.4699  156.6556 C.ar    1  UNL1        0.1342
     24 C         142.9563  133.8337  155.3375 C.ar    1  UNL1        0.0342
     25 C         143.4885  132.4702  155.0096 C.ar    1  UNL1        0.0001
     26 C         144.3489  131.7427  155.9999 C.ar    1  UNL1       -0.0026
     27 C         144.8810  130.3792  155.6720 C.3     1  UNL1        0.0327
     28 C         144.6771  132.3789  157.3181 C.ar    1  UNL1        0.0960
     29 N         144.1449  133.7425  157.6459 N.ar    1  UNL1       -0.2293
     30 C         143.6263  139.6418  156.2891 C.3     1  UNL1        0.1952
     31 C         145.0778  141.5491  157.2918 C.3     1  UNL1        0.1743
     32 O         144.8944  140.1012  156.9455 O.3     1  UNL1       -0.3467
@<TRIPOS>BOND
     1    31    32    1
     2    32    30    1
     3    18    30    1
     4    18     1    1
     5     1     2    1
     6     2     3   ar
     7     3     4   ar
     8     4     5   ar
     9     5     6   ar
    10     6     7   ar
    11     7     8   ar
    12     8     9   ar
    13     9    10   ar
    14    10    11    1
    15    11    12   ar
    16    12    13   ar
    17    13    14   ar
    18    14    15   ar
    19    15    16   ar
    20    16    17    1
    21    18    19    1
    22    19    20    2
    23    19    21   am
    24    21    23    1
    25    23    24   ar
    26    24    25   ar
    27    25    26   ar
    28    26    27    1
    29    26    28   ar
    30    28    29   ar
    31     7     2   ar
    32    16    11   ar
    33    29    23   ar
    34    10     6   ar
    35    21    22    1
@<TRIPOS>MOLECULE
*****
 32 35 0 0 0
SMALL
GASTEIGER

@<TRIPOS>ATOM
      1 O         141.1317  145.0162  161.1109 O.3     1  UNL1       -0.4517
      2 C         140.2675  144.5132  162.2290 C.ar    1  UNL1        0.2312
      3 N         138.7791  144.6870  162.1630 N.ar    1  UNL1       -0.1892
      4 C         137.9150  144.1840  163.2811 C.ar    1  UNL1        0.2029
      5 N         138.5394  143.5071  164.4653 N.ar    1  UNL1       -0.2046
      6 C         140.0278  143.3334  164.5313 C.ar    1  UNL1        0.1715
      7 C         140.8919  143.8364  163.4132 C.ar    1  UNL1        0.1098
      8 C         142.3191  143.5248  163.7540 C.ar    1  UNL1        0.1283
      9 N         142.3369  142.8292  165.0829 N.ar    1  UNL1       -0.1619
     10 N         140.9208  142.7109  165.5632 N.ar    1  UNL1       -0.2111
     11 C         140.4759  142.0807  166.8497 C.ar    1  UNL1        0.0949
     12 C         140.5688  142.8508  168.1335 C.ar    1  UNL1        0.0201
     13 C         140.1239  142.2206  169.4200 C.ar    1  UNL1        0.0016
     14 C         139.5861  140.8203  169.4226 C.ar    1  UNL1        0.0010
     15 C         139.4933  140.0503  168.1387 C.ar    1  UNL1        0.0129
     16 C         139.9382  140.6804  166.8523 C.ar    1  UNL1        0.0753
     17 CL        139.8453  139.9103  165.5684 Cl      1  UNL1       -0.0807
     18 C         140.9780  144.4490  159.7308 C.3     1  UNL1        0.2722
     19 C         141.0151  145.3579  158.5379 C.2     1  UNL1        0.2701
     20 O         142.2452  146.1661  158.2489 O.2     1  UNL1       -0.2707
     21 N         139.8221  145.4584  157.6342 N.am    1  UNL1       -0.2663
     22 H         139.0148  144.9279  157.8240 H       1  UNL1        0.1564
     23 C         139.8592  146.3671  156.4415 C.ar    1  UNL1        0.1342
     24 C         140.6814  145.9978  155.2425 C.ar    1  UNL1        0.0342
     25 C         140.7185  146.9066  154.0497 C.ar    1  UNL1        0.0001
     26 C         139.9334  148.1847  154.0559 C.ar    1  UNL1       -0.0026
     27 C         139.9704  149.0935  152.8631 C.3     1  UNL1        0.0327
     28 C         139.1112  148.5540  155.2549 C.ar    1  UNL1        0.0960
     29 N         139.0741  147.6452  156.4477 N.ar    1  UNL1       -0.2293
     30 C         140.7872  142.9731  159.5435 C.3     1  UNL1        0.1952
     31 C         140.8311  141.9044  157.1757 C.3     1  UNL1        0.1743
     32 O         140.0597  142.4580  158.3370 O.3     1  UNL1       -0.3467
@<TRIPOS>BOND
     1    31    32    1
     2    32    30    1
     3    18    30    1
     4    18     1    1
     5     1     2    1
     6     2     3   ar
     7     3     4   ar
     8     4     5   ar
     9     5     6   ar
    10     6     7   ar
    11     7     8   ar
    12     8     9   ar
    13     9    10   ar
    14    10    11    1
    15    11    12   ar
    16    12    13   ar
    17    13    14   ar
    18    14    15   ar
    19    15    16   ar
    20    16    17    1
    21    18    19    1
    22    19    20    2
    23    19    21   am
    24    21    23    1
    25    23    24   ar
    26    24    25   ar
    27    25    26   ar
    28    26    27    1
    29    26    28   ar
    30    28    29   ar
    31     7     2   ar
    32    16    11   ar
    33    29    23   ar
    34    10     6   ar
    35    21    22    1
@<TRIPOS>MOLECULE
*****
 32 35 0 0 0
SMALL
GASTEIGER

@<TRIPOS>ATOM
      1 O         137.2473  141.6931  162.3187 O.3     1  UNL1       -0.4517
      2 C         138.0715  142.5189  163.2614 C.ar    1  UNL1        0.2312
      3 N         138.2787  143.9801  162.9936 N.ar    1  UNL1       -0.1892
      4 C         139.1030  144.8059  163.9363 C.ar    1  UNL1        0.2029
      5 N         139.7200  144.1703  165.1468 N.ar    1  UNL1       -0.2046
      6 C         139.5129  142.7091  165.4146 C.ar    1  UNL1        0.1715
      7 C         138.6886  141.8834  164.4719 C.ar    1  UNL1        0.1098
      8 C         138.6589  140.4768  164.9923 C.ar    1  UNL1        0.1283
      9 N         139.4649  140.4332  166.2566 N.ar    1  UNL1       -0.1619
     10 N         139.9926  141.8129  166.5176 N.ar    1  UNL1       -0.2111
     11 C         140.8496  142.2242  167.6780 C.ar    1  UNL1        0.0949
     12 C         140.2582  143.0232  168.8012 C.ar    1  UNL1        0.0201
     13 C         141.1153  143.4345  169.9615 C.ar    1  UNL1        0.0016
     14 C         142.5638  143.0467  169.9986 C.ar    1  UNL1        0.0010
     15 C         143.1552  142.2476  168.8754 C.ar    1  UNL1        0.0129
     16 C         142.2982  141.8364  167.7151 C.ar    1  UNL1        0.0753
     17 CL        142.8897  141.0373  166.5919 Cl      1  UNL1       -0.0807
     18 C         137.9205  140.8138  161.3069 C.3     1  UNL1        0.2722
     19 C         139.1455  141.2980  160.5893 C.2     1  UNL1        0.2701
     20 O         139.0466  142.4431  159.6255 O.2     1  UNL1       -0.2707
     21 N         140.4693  140.6371  160.8355 N.am    1  UNL1       -0.2663
     22 H         140.5342  139.8855  161.4681 H       1  UNL1        0.1564
     23 C         141.6943  141.1213  160.1179 C.ar    1  UNL1        0.1342
     24 C         142.1861  140.3963  158.9004 C.ar    1  UNL1        0.0342
     25 C         143.4110  140.8804  158.1828 C.ar    1  UNL1        0.0001
     26 C         144.1443  142.0898  158.6828 C.ar    1  UNL1       -0.0026
     27 C         145.3693  142.5739  157.9652 C.3     1  UNL1        0.0327
     28 C         143.6526  142.8148  159.9003 C.ar    1  UNL1        0.0960
     29 N         142.4275  142.3306  160.6179 N.ar    1  UNL1       -0.2293
     30 C         137.3688  139.4503  161.0128 C.3     1  UNL1        0.1952
     31 C         139.0156  137.8989  162.2899 C.3     1  UNL1        0.1743
     32 O         137.6123  138.3204  161.9688 O.3     1  UNL1       -0.3467
@<TRIPOS>BOND
     1    31    32    1
     2    32    30    1
     3    18    30    1
     4    18     1    1
     5     1     2    1
     6     2     3   ar
     7     3     4   ar
     8     4     5   ar
     9     5     6   ar
    10     6     7   ar
    11     7     8   ar
    12     8     9   ar
    13     9    10   ar
    14    10    11    1
    15    11    12   ar
    16    12    13   ar
    17    13    14   ar
    18    14    15   ar
    19    15    16   ar
    20    16    17    1
    21    18    19    1
    22    19    20    2
    23    19    21   am
    24    21    23    1
    25    23    24   ar
    26    24    25   ar
    27    25    26   ar
    28    26    27    1
    29    26    28   ar
    30    28    29   ar
    31     7     2   ar
    32    16    11   ar
    33    29    23   ar
    34    10     6   ar
    35    21    22    1
@<TRIPOS>MOLECULE
*****
 32 35 0 0 0
SMALL
GASTEIGER

@<TRIPOS>ATOM
      1 O         141.8447  138.6864  157.5767 O.3     1  UNL1       -0.4517
      2 C         141.9078  138.5090  159.0648 C.ar    1  UNL1        0.2312
      3 N         143.1956  138.1028  159.7178 N.ar    1  UNL1       -0.1892
      4 C         143.2587  137.9255  161.2059 C.ar    1  UNL1        0.2029
      5 N         142.0339  138.1544  162.0411 N.ar    1  UNL1       -0.2046
      6 C         140.7460  138.5607  161.3881 C.ar    1  UNL1        0.1715
      7 C         140.6830  138.7380  159.9000 C.ar    1  UNL1        0.1098
      8 C         139.2838  139.1416  159.5401 C.ar    1  UNL1        0.1283
      9 N         138.4821  139.2137  160.8058 N.ar    1  UNL1       -0.1619
     10 N         139.3859  138.8546  161.9480 N.ar    1  UNL1       -0.2111
     11 C         138.9976  138.7993  163.3958 C.ar    1  UNL1        0.0949
     12 C         138.9757  137.4841  164.1167 C.ar    1  UNL1        0.0201
     13 C         138.5874  137.4288  165.5645 C.ar    1  UNL1        0.0016
     14 C         138.2209  138.6887  166.2914 C.ar    1  UNL1        0.0010
     15 C         138.2427  140.0038  165.5705 C.ar    1  UNL1        0.0129
     16 C         138.6310  140.0592  164.1227 C.ar    1  UNL1        0.0753
     17 CL        138.6528  141.3744  163.4018 Cl      1  UNL1       -0.0807
     18 C         141.3051  137.5855  156.7124 C.3     1  UNL1        0.2722
     19 C         142.1067  136.3350  156.5031 C.2     1  UNL1        0.2701
     20 O         143.5871  136.3439  156.7447 O.2     1  UNL1       -0.2707
     21 N         141.4279  135.0757  156.0522 N.am    1  UNL1       -0.2663
     22 H         140.4563  135.0699  155.8936 H       1  UNL1        0.1564
     23 C         142.2294  133.8252  155.8429 C.ar    1  UNL1        0.1342
     24 C         142.4643  133.3085  154.4545 C.ar    1  UNL1        0.0342
     25 C         143.2658  132.0580  154.2452 C.ar    1  UNL1        0.0001
     26 C         143.8325  131.3242  155.4244 C.ar    1  UNL1       -0.0026
     27 C         144.6340  130.0737  155.2152 C.3     1  UNL1        0.0327
     28 C         143.5976  131.8409  156.8129 C.ar    1  UNL1        0.0960
     29 N         142.7960  133.0915  157.0221 N.ar    1  UNL1       -0.2293
     30 C         139.9640  137.7351  156.0574 C.3     1  UNL1        0.1952
     31 C         138.3874  137.3119  154.0362 C.3     1  UNL1        0.1743
     32 O         139.7315  137.1712  154.6871 O.3     1  UNL1       -0.3467
@<TRIPOS>BOND
     1    31    32    1
     2    32    30    1
     3    18    30    1
     4    18     1    1
     5     1     2    1
     6     2     3   ar
     7     3     4   ar
     8     4     5   ar
     9     5     6   ar
    10     6     7   ar
    11     7     8   ar
    12     8     9   ar
    13     9    10   ar
    14    10    11    1
    15    11    12   ar
    16    12    13   ar
    17    13    14   ar
    18    14    15   ar
    19    15    16   ar
    20    16    17    1
    21    18    19    1
    22    19    20    2
    23    19    21   am
    24    21    23    1
    25    23    24   ar
    26    24    25   ar
    27    25    26   ar
    28    26    27    1
    29    26    28   ar
    30    28    29   ar
    31     7     2   ar
    32    16    11   ar
    33    29    23   ar
    34    10     6   ar
    35    21    22    1
@<TRIPOS>MOLECULE
*****
 32 35 0 0 0
SMALL
GASTEIGER

@<TRIPOS>ATOM
      1 O         143.6093  144.3447  163.0131 O.3     1  UNL1       -0.4517
      2 C         142.3744  144.1153  163.8331 C.ar    1  UNL1        0.2312
      3 N         141.1031  144.8346  163.4918 N.ar    1  UNL1       -0.1892
      4 C         139.8683  144.6051  164.3118 C.ar    1  UNL1        0.2029
      5 N         139.9046  143.6563  165.4731 N.ar    1  UNL1       -0.2046
      6 C         141.1759  142.9370  165.8143 C.ar    1  UNL1        0.1715
      7 C         142.4107  143.1665  164.9944 C.ar    1  UNL1        0.1098
      8 C         143.5104  142.3215  165.5660 C.ar    1  UNL1        0.1283
      9 N         142.9552  141.5698  166.7392 N.ar    1  UNL1       -0.1619
     10 N         141.5123  141.9502  166.8927 N.ar    1  UNL1       -0.2111
     11 C         140.5712  141.4344  167.9406 C.ar    1  UNL1        0.0949
     12 C         139.7380  140.2175  167.6670 C.ar    1  UNL1        0.0201
     13 C         138.7969  139.7016  168.7149 C.ar    1  UNL1        0.0016
     14 C         138.6888  140.4028  170.0366 C.ar    1  UNL1        0.0010
     15 C         139.5220  141.6197  170.3102 C.ar    1  UNL1        0.0129
     16 C         140.4631  142.1355  169.2623 C.ar    1  UNL1        0.0753
     17 CL        141.2962  143.3524  169.5361 Cl      1  UNL1       -0.0807
     18 C         143.9330  143.4268  161.8718 C.3     1  UNL1        0.2722
     19 C         143.2762  143.6277  160.5382 C.2     1  UNL1        0.2701
     20 O         143.6972  142.7974  159.3621 O.2     1  UNL1       -0.2707
     21 N         142.1985  144.6591  160.3808 N.am    1  UNL1       -0.2663
     22 H         141.9222  145.2041  161.1527 H       1  UNL1        0.1564
     23 C         141.5417  144.8601  159.0473 C.ar    1  UNL1        0.1342
     24 C         140.2889  144.1084  158.7074 C.ar    1  UNL1        0.0342
     25 C         139.6322  144.3094  157.3739 C.ar    1  UNL1        0.0001
     26 C         140.2282  145.2620  156.3802 C.ar    1  UNL1       -0.0026
     27 C         139.5714  145.4630  155.0468 C.3     1  UNL1        0.0327
     28 C         141.4810  146.0137  156.7202 C.ar    1  UNL1        0.0960
     29 N         142.1377  145.8127  158.0537 N.ar    1  UNL1       -0.2293
     30 C         144.9134  142.3080  162.0640 C.3     1  UNL1        0.1952
     31 C         143.1625  140.4301  162.4615 C.3     1  UNL1        0.1743
     32 O         144.4718  140.8853  161.8881 O.3     1  UNL1       -0.3467
@<TRIPOS>BOND
     1    31    32    1
     2    32    30    1
     3    18    30    1
     4    18     1    1
     5     1     2    1
     6     2     3   ar
     7     3     4   ar
     8     4     5   ar
     9     5     6   ar
    10     6     7   ar
    11     7     8   ar
    12     8     9   ar
    13     9    10   ar
    14    10    11    1
    15    11    12   ar
    16    12    13   ar
    17    13    14   ar
    18    14    15   ar
    19    15    16   ar
    20    16    17    1
    21    18    19    1
    22    19    20    2
    23    19    21   am
    24    21    23    1
    25    23    24   ar
    26    24    25   ar
    27    25    26   ar
    28    26    27    1
    29    26    28   ar
    30    28    29   ar
    31     7     2   ar
    32    16    11   ar
    33    29    23   ar
    34    10     6   ar
    35    21    22    1
@<TRIPOS>MOLECULE
*****
 32 35 0 0 0
SMALL
GASTEIGER

@<TRIPOS>ATOM
      1 O         142.2571  143.5208  160.1558 O.3     1  UNL1       -0.4517
      2 C         142.5844  143.5523  161.6193 C.ar    1  UNL1        0.2312
      3 N         143.4110  144.6718  162.1791 N.ar    1  UNL1       -0.1892
      4 C         143.7383  144.7032  163.6426 C.ar    1  UNL1        0.2029
      5 N         143.2389  143.6152  164.5463 N.ar    1  UNL1       -0.2046
      6 C         142.4122  142.4957  163.9866 C.ar    1  UNL1        0.1715
      7 C         142.0850  142.4642  162.5231 C.ar    1  UNL1        0.1098
      8 C         141.2557  141.2423  162.2597 C.ar    1  UNL1        0.1283
      9 N         141.0704  140.5187  163.5604 N.ar    1  UNL1       -0.1619
     10 N         141.7852  141.2933  164.6277 N.ar    1  UNL1       -0.2111
     11 C         141.8599  140.9294  166.0809 C.ar    1  UNL1        0.0949
     12 C         142.6818  139.7534  166.5184 C.ar    1  UNL1        0.0201
     13 C         142.7564  139.3895  167.9717 C.ar    1  UNL1        0.0016
     14 C         142.0091  140.2016  168.9876 C.ar    1  UNL1        0.0010
     15 C         141.1872  141.3776  168.5501 C.ar    1  UNL1        0.0129
     16 C         141.1126  141.7415  167.0968 C.ar    1  UNL1        0.0753
     17 CL        140.2906  142.9175  166.6595 Cl      1  UNL1       -0.0807
     18 C         140.9991  144.1659  159.6545 C.3     1  UNL1        0.2722
     19 C         141.0534  145.1127  158.4923 C.2     1  UNL1        0.2701
     20 O         142.2575  145.9841  158.2905 O.2     1  UNL1       -0.2707
     21 N         139.9036  145.1880  157.5319 N.am    1  UNL1       -0.2663
     22 H         139.1133  144.6160  157.6644 H       1  UNL1        0.1564
     23 C         139.9579  146.1347  156.3697 C.ar    1  UNL1        0.1342
     24 C         140.7987  145.8047  155.1722 C.ar    1  UNL1        0.0342
     25 C         140.8530  146.7515  154.0100 C.ar    1  UNL1        0.0001
     26 C         140.0664  148.0283  154.0453 C.ar    1  UNL1       -0.0026
     27 C         140.1207  148.9750  152.8832 C.3     1  UNL1        0.0327
     28 C         139.2256  148.3583  155.2429 C.ar    1  UNL1        0.0960
     29 N         139.1714  147.4114  156.4051 N.ar    1  UNL1       -0.2293
     30 C         139.6868  143.8643  160.3154 C.3     1  UNL1        0.1952
     31 C         139.8039  146.0310  161.7444 C.3     1  UNL1        0.1743
     32 O         139.2501  144.6564  161.5120 O.3     1  UNL1       -0.3467
@<TRIPOS>BOND
     1    31    32    1
     2    32    30    1
     3    18    30    1
     4    18     1    1
     5     1     2    1
     6     2     3   ar
     7     3     4   ar
     8     4     5   ar
     9     5     6   ar
    10     6     7   ar
    11     7     8   ar
    12     8     9   ar
    13     9    10   ar
    14    10    11    1
    15    11    12   ar
    16    12    13   ar
    17    13    14   ar
    18    14    15   ar
    19    15    16   ar
    20    16    17    1
    21    18    19    1
    22    19    20    2
    23    19    21   am
    24    21    23    1
    25    23    24   ar
    26    24    25   ar
    27    25    26   ar
    28    26    27    1
    29    26    28   ar
    30    28    29   ar
    31     7     2   ar
    32    16    11   ar
    33    29    23   ar
    34    10     6   ar
    35    21    22    1
@<TRIPOS>MOLECULE
*****
 32 35 0 0 0
SMALL
GASTEIGER

@<TRIPOS>ATOM
      1 O         141.3715  145.3749  161.5437 O.3     1  UNL1       -0.4517
      2 C         142.2011  144.5226  162.4579 C.ar    1  UNL1        0.2312
      3 N         143.6230  144.2045  162.1017 N.ar    1  UNL1       -0.1892
      4 C         144.4524  143.3523  163.0158 C.ar    1  UNL1        0.2029
      5 N         143.8600  142.8182  164.2862 N.ar    1  UNL1       -0.2046
      6 C         142.4380  143.1363  164.6423 C.ar    1  UNL1        0.1715
      7 C         141.6086  143.9885  163.7282 C.ar    1  UNL1        0.1098
      8 C         140.2461  144.1333  164.3388 C.ar    1  UNL1        0.1283
      9 N         140.2336  143.3706  165.6303 N.ar    1  UNL1       -0.1619
     10 N         141.5882  142.7544  165.8179 N.ar    1  UNL1       -0.2111
     11 C         142.0177  141.9054  166.9775 C.ar    1  UNL1        0.0949
     12 C         142.7134  142.5324  168.1492 C.ar    1  UNL1        0.0201
     13 C         143.1429  141.6834  169.3087 C.ar    1  UNL1        0.0016
     14 C         142.8767  140.2072  169.2967 C.ar    1  UNL1        0.0010
     15 C         142.1811  139.5802  168.1250 C.ar    1  UNL1        0.0129
     16 C         141.7516  140.4292  166.9655 C.ar    1  UNL1        0.0753
     17 CL        141.0559  139.8021  165.7938 Cl      1  UNL1       -0.0807
     18 C         140.7593  144.7773  160.3116 C.3     1  UNL1        0.2722
     19 C         140.8830  145.4841  158.9943 C.2     1  UNL1        0.2701
     20 O         142.2367  145.8614  158.4698 O.2     1  UNL1       -0.2707
     21 N         139.6530  145.8135  158.2015 N.am    1  UNL1       -0.2663
     22 H         138.7645  145.5658  158.5457 H       1  UNL1        0.1564
     23 C         139.7766  146.5202  156.8842 C.ar    1  UNL1        0.1342
     24 C         139.0276  147.7977  156.6452 C.ar    1  UNL1        0.0342
     25 C         139.1513  148.5044  155.3280 C.ar    1  UNL1        0.0001
     26 C         140.0240  147.9337  154.2496 C.ar    1  UNL1       -0.0026
     27 C         140.1477  148.6404  152.9324 C.3     1  UNL1        0.0327
     28 C         140.7730  146.6563  154.4886 C.ar    1  UNL1        0.0960
     29 N         140.6493  145.9495  155.8060 N.ar    1  UNL1       -0.2293
     30 C         140.0233  143.4731  160.3968 C.3     1  UNL1        0.1952
     31 C         138.8116  142.3672  158.3821 C.3     1  UNL1        0.1743
     32 O         138.7787  143.2600  159.5871 O.3     1  UNL1       -0.3467
@<TRIPOS>BOND
     1    31    32    1
     2    32    30    1
     3    18    30    1
     4    18     1    1
     5     1     2    1
     6     2     3   ar
     7     3     4   ar
     8     4     5   ar
     9     5     6   ar
    10     6     7   ar
    11     7     8   ar
    12     8     9   ar
    13     9    10   ar
    14    10    11    1
    15    11    12   ar
    16    12    13   ar
    17    13    14   ar
    18    14    15   ar
    19    15    16   ar
    20    16    17    1
    21    18    19    1
    22    19    20    2
    23    19    21   am
    24    21    23    1
    25    23    24   ar
    26    24    25   ar
    27    25    26   ar
    28    26    27    1
    29    26    28   ar
    30    28    29   ar
    31     7     2   ar
    32    16    11   ar
    33    29    23   ar
    34    10     6   ar
    35    21    22    1
@<TRIPOS>MOLECULE
*****
 32 35 0 0 0
SMALL
GASTEIGER

@<TRIPOS>ATOM
      1 O         141.9572  137.6440  162.9106 O.3     1  UNL1       -0.4517
      2 C         141.1240  138.1340  164.0576 C.ar    1  UNL1        0.2312
      3 N         139.7043  137.6724  164.2043 N.ar    1  UNL1       -0.1892
      4 C         138.8711  138.1624  165.3513 C.ar    1  UNL1        0.2029
      5 N         139.4576  139.1139  166.3517 N.ar    1  UNL1       -0.2046
      6 C         140.8772  139.5754  166.2050 C.ar    1  UNL1        0.1715
      7 C         141.7104  139.0855  165.0580 C.ar    1  UNL1        0.1098
      8 C         143.0695  139.7099  165.1723 C.ar    1  UNL1        0.1283
      9 N         143.0763  140.5858  166.3899 N.ar    1  UNL1       -0.1619
     10 N         141.7213  140.5027  167.0282 N.ar    1  UNL1       -0.2111
     11 C         141.2868  141.2208  168.2714 C.ar    1  UNL1        0.0949
     12 C         140.7126  142.6033  168.1771 C.ar    1  UNL1        0.0201
     13 C         140.2781  143.3214  169.4203 C.ar    1  UNL1        0.0016
     14 C         140.4178  142.6569  170.7578 C.ar    1  UNL1        0.0010
     15 C         140.9919  141.2744  170.8521 C.ar    1  UNL1        0.0129
     16 C         141.4265  140.5564  169.6089 C.ar    1  UNL1        0.0753
     17 CL        142.0006  139.1738  169.7033 Cl      1  UNL1       -0.0807
     18 C         142.0325  138.4429  161.6433 C.3     1  UNL1        0.2722
     19 C         141.3987  139.8007  161.5738 C.2     1  UNL1        0.2701
     20 O         139.9738  139.9412  161.1270 O.2     1  UNL1       -0.2707
     21 N         142.1899  141.0179  161.9512 N.am    1  UNL1       -0.2663
     22 H         143.1252  140.9256  162.2444 H       1  UNL1        0.1564
     23 C         141.5562  142.3756  161.8818 C.ar    1  UNL1        0.1342
     24 C         140.8163  142.9195  163.0678 C.ar    1  UNL1        0.0342
     25 C         140.1825  144.2772  162.9984 C.ar    1  UNL1        0.0001
     26 C         140.2887  145.0911  161.7429 C.ar    1  UNL1       -0.0026
     27 C         139.6549  146.4489  161.6735 C.3     1  UNL1        0.0327
     28 C         141.0286  144.5473  160.5568 C.ar    1  UNL1        0.0960
     29 N         141.6623  143.1895  160.6263 N.ar    1  UNL1       -0.2293
     30 C         142.7416  137.8840  160.4454 C.3     1  UNL1        0.1952
     31 C         143.2826  139.4624  158.4539 C.3     1  UNL1        0.1743
     32 O         143.7203  138.7331  159.6895 O.3     1  UNL1       -0.3467
@<TRIPOS>BOND
     1    31    32    1
     2    32    30    1
     3    18    30    1
     4    18     1    1
     5     1     2    1
     6     2     3   ar
     7     3     4   ar
     8     4     5   ar
     9     5     6   ar
    10     6     7   ar
    11     7     8   ar
    12     8     9   ar
    13     9    10   ar
    14    10    11    1
    15    11    12   ar
    16    12    13   ar
    17    13    14   ar
    18    14    15   ar
    19    15    16   ar
    20    16    17    1
    21    18    19    1
    22    19    20    2
    23    19    21   am
    24    21    23    1
    25    23    24   ar
    26    24    25   ar
    27    25    26   ar
    28    26    27    1
    29    26    28   ar
    30    28    29   ar
    31     7     2   ar
    32    16    11   ar
    33    29    23   ar
    34    10     6   ar
    35    21    22    1
