@<TRIPOS>MOLECULE
*****
 28 31 0 0 0
SMALL
GASTEIGER

@<TRIPOS>ATOM
      1 C         143.2305  142.2219  161.6565 C.3     1  UNL1        0.0252
      2 C         143.5271  140.7974  161.2919 C.3     1  UNL1        0.0217
      3 C         144.1041  139.8656  162.3160 C.3     1  UNL1        0.0724
      4 N         144.3845  140.3584  163.7048 N.3     1  UNL1       -0.2726
      5 C         144.0880  141.7829  164.0693 C.3     1  UNL1        0.0724
      6 C         143.5110  142.7146  163.0452 C.3     1  UNL1        0.0217
      7 C         141.4995  145.0171  158.5840 C.ar    1  UNL1        0.1724
      8 C         142.6237  144.0966  158.2116 C.ar    1  UNL1        0.0397
      9 C         143.2007  143.1648  159.2357 C.ar    1  UNL1       -0.0010
     10 C         142.6535  143.1537  160.6323 C.ar    1  UNL1       -0.0192
     11 C         141.5293  144.0742  161.0047 C.ar    1  UNL1        0.0358
     12 C         140.9523  145.0060  159.9806 C.ar    1  UNL1        0.1721
     13 C         139.8788  145.4567  156.6016 C.3     1  UNL1        0.2526
     14 O         140.9225  145.9489  157.5598 O.3     1  UNL1       -0.4684
     15 O         139.8281  145.9265  160.3530 O.3     1  UNL1       -0.4684
     16 C         139.6114  146.3032  161.7886 C.3     1  UNL1        0.2526
     17 C         144.9615  139.4267  164.7290 C.3     1  UNL1        0.0724
     18 C         144.0608  138.5049  165.4963 C.3     1  UNL1        0.0219
     19 C         142.7176  138.9840  165.9612 C.3     1  UNL1        0.0304
     20 C         142.6108  139.8463  167.1839 C.3     1  UNL1        0.0518
     21 C         141.2676  140.3255  167.6488 C.3     1  UNL1        0.2057
     22 O         140.0311  139.9423  166.8911 O.3     1  UNL1       -0.4758
     23 C         140.1378  139.0800  165.6684 C.ar    1  UNL1        0.1345
     24 C         138.9013  138.6968  164.9107 C.ar    1  UNL1        0.0366
     25 C         139.0080  137.8345  163.6880 C.ar    1  UNL1        0.0031
     26 C         140.3512  137.3553  163.2230 C.ar    1  UNL1       -0.0001
     27 C         141.5877  137.7385  163.9808 C.ar    1  UNL1       -0.0013
     28 C         141.4810  138.6008  165.2034 C.ar    1  UNL1        0.0116
@<TRIPOS>BOND
     1    13    14    1
     2    14     7    1
     3     7     8   ar
     4     8     9   ar
     5     9    10   ar
     6    10     1    1
     7     1     2    1
     8     2     3    1
     9     3     4    1
    10     4    17    1
    11    17    18    1
    12    18    19    1
    13    19    20    1
    14    20    21    1
    15    21    22    1
    16    22    23    1
    17    23    24   ar
    18    24    25   ar
    19    25    26   ar
    20    26    27   ar
    21    27    28   ar
    22     4     5    1
    23     5     6    1
    24    10    11   ar
    25    11    12   ar
    26    12    15    1
    27    15    16    1
    28    12     7   ar
    29     6     1    1
    30    28    19    1
    31    28    23   ar
@<TRIPOS>MOLECULE
*****
 28 31 0 0 0
SMALL
GASTEIGER

@<TRIPOS>ATOM
      1 C         143.2538  142.2208  161.4582 C.3     1  UNL1        0.0252
      2 C         143.8461  142.7155  162.7445 C.3     1  UNL1        0.0217
      3 C         144.4384  141.7427  163.7206 C.3     1  UNL1        0.0724
      4 N         144.4385  140.2751  163.4103 N.3     1  UNL1       -0.2726
      5 C         143.8462  139.7804  162.1241 C.3     1  UNL1        0.0724
      6 C         143.2538  140.7532  161.1481 C.3     1  UNL1        0.0217
      7 C         141.4767  145.1393  158.5301 C.ar    1  UNL1        0.1724
      8 C         142.6029  144.2438  158.1065 C.ar    1  UNL1        0.0397
      9 C         143.1953  143.2709  159.0826 C.ar    1  UNL1       -0.0010
     10 C         142.6614  143.1936  160.4822 C.ar    1  UNL1       -0.0192
     11 C         141.5351  144.0892  160.9058 C.ar    1  UNL1        0.0358
     12 C         140.9427  145.0621  159.9298 C.ar    1  UNL1        0.1721
     13 C         139.8319  145.6574  156.5868 C.3     1  UNL1        0.2526
     14 O         140.8843  146.1122  157.5541 O.3     1  UNL1       -0.4684
     15 O         139.8165  145.9577  160.3533 O.3     1  UNL1       -0.4684
     16 C         139.6307  146.2945  161.8032 C.3     1  UNL1        0.2526
     17 C         145.0308  139.3022  164.3864 C.3     1  UNL1        0.0724
     18 C         144.2150  138.8123  165.5458 C.3     1  UNL1        0.0219
     19 C         142.7172  138.8650  165.4845 C.3     1  UNL1        0.0304
     20 C         141.9576  137.7879  164.7685 C.3     1  UNL1        0.0518
     21 C         140.4598  137.8405  164.7071 C.3     1  UNL1        0.2057
     22 O         139.7216  138.9704  165.3617 O.3     1  UNL1       -0.4758
     23 C         140.4812  140.0476  166.0778 C.ar    1  UNL1        0.1345
     24 C         139.7430  141.1774  166.7324 C.ar    1  UNL1        0.0366
     25 C         140.5027  142.2545  167.4483 C.ar    1  UNL1        0.0031
     26 C         142.0005  142.2019  167.5097 C.ar    1  UNL1       -0.0001
     27 C         142.7387  141.0721  166.8551 C.ar    1  UNL1       -0.0013
     28 C         141.9790  139.9949  166.1391 C.ar    1  UNL1        0.0116
@<TRIPOS>BOND
     1    13    14    1
     2    14     7    1
     3     7     8   ar
     4     8     9   ar
     5     9    10   ar
     6    10     1    1
     7     1     2    1
     8     2     3    1
     9     3     4    1
    10     4    17    1
    11    17    18    1
    12    18    19    1
    13    19    20    1
    14    20    21    1
    15    21    22    1
    16    22    23    1
    17    23    24   ar
    18    24    25   ar
    19    25    26   ar
    20    26    27   ar
    21    27    28   ar
    22     4     5    1
    23     5     6    1
    24    10    11   ar
    25    11    12   ar
    26    12    15    1
    27    15    16    1
    28    12     7   ar
    29     6     1    1
    30    28    19    1
    31    28    23   ar
@<TRIPOS>MOLECULE
*****
 28 31 0 0 0
SMALL
GASTEIGER

@<TRIPOS>ATOM
      1 C         143.6474  141.4949  162.4042 C.3     1  UNL1        0.0252
      2 C         143.4055  142.8228  163.0586 C.3     1  UNL1        0.0217
      3 C         143.1694  142.8980  164.5380 C.3     1  UNL1        0.0724
      4 N         143.1753  141.6452  165.3630 N.3     1  UNL1       -0.2726
      5 C         143.4172  140.3174  164.7087 C.3     1  UNL1        0.0724
      6 C         143.6533  140.2422  163.2293 C.3     1  UNL1        0.0217
      7 C         144.3557  141.2693  157.9661 C.ar    1  UNL1        0.1724
      8 C         144.6468  142.5398  158.7084 C.ar    1  UNL1        0.0397
      9 C         144.4107  142.6150  160.1878 C.ar    1  UNL1       -0.0010
     10 C         143.8835  141.4197  160.9248 C.ar    1  UNL1       -0.0192
     11 C         143.5924  140.1491  160.1825 C.ar    1  UNL1        0.0358
     12 C         143.8285  140.0740  158.7031 C.ar    1  UNL1        0.1721
     13 C         145.9738  140.9458  155.9594 C.3     1  UNL1        0.2526
     14 O         144.5917  141.1942  156.4867 O.3     1  UNL1       -0.4684
     15 O         143.5374  138.8035  157.9608 O.3     1  UNL1       -0.4684
     16 C         142.5834  137.7998  158.5373 C.3     1  UNL1        0.2526
     17 C         142.9392  141.7204  166.8424 C.3     1  UNL1        0.0724
     18 C         141.5386  141.7751  167.3766 C.3     1  UNL1        0.0219
     19 C         140.4009  141.2473  166.5537 C.3     1  UNL1        0.0304
     20 C         140.1017  139.7776  166.5429 C.3     1  UNL1        0.0518
     21 C         138.9640  139.2498  165.7200 C.3     1  UNL1        0.2057
     22 O         138.1255  140.1919  164.9079 O.3     1  UNL1       -0.4758
     23 C         138.4248  141.6617  164.9188 C.ar    1  UNL1        0.1345
     24 C         137.5863  142.6038  164.1067 C.ar    1  UNL1        0.0366
     25 C         137.8855  144.0736  164.1176 C.ar    1  UNL1        0.0031
     26 C         139.0232  144.6013  164.9405 C.ar    1  UNL1       -0.0001
     27 C         139.8617  143.6593  165.7525 C.ar    1  UNL1       -0.0013
     28 C         139.5625  142.1895  165.7416 C.ar    1  UNL1        0.0116
@<TRIPOS>BOND
     1    13    14    1
     2    14     7    1
     3     7     8   ar
     4     8     9   ar
     5     9    10   ar
     6    10     1    1
     7     1     2    1
     8     2     3    1
     9     3     4    1
    10     4    17    1
    11    17    18    1
    12    18    19    1
    13    19    20    1
    14    20    21    1
    15    21    22    1
    16    22    23    1
    17    23    24   ar
    18    24    25   ar
    19    25    26   ar
    20    26    27   ar
    21    27    28   ar
    22     4     5    1
    23     5     6    1
    24    10    11   ar
    25    11    12   ar
    26    12    15    1
    27    15    16    1
    28    12     7   ar
    29     6     1    1
    30    28    19    1
    31    28    23   ar
@<TRIPOS>MOLECULE
*****
 28 31 0 0 0
SMALL
GASTEIGER

@<TRIPOS>ATOM
      1 C         140.4526  138.3217  160.9307 C.3     1  UNL1        0.0252
      2 C         141.4111  137.9833  162.0338 C.3     1  UNL1        0.0217
      3 C         140.9012  137.7498  163.4250 C.3     1  UNL1        0.0724
      4 N         139.4328  137.8548  163.7131 N.3     1  UNL1       -0.2726
      5 C         138.4744  138.1933  162.6100 C.3     1  UNL1        0.0724
      6 C         138.9843  138.4267  161.2188 C.3     1  UNL1        0.0217
      7 C         141.9822  139.0221  156.7570 C.ar    1  UNL1        0.1724
      8 C         140.5580  138.6040  156.9735 C.ar    1  UNL1        0.0397
      9 C         140.0482  138.3705  158.3647 C.ar    1  UNL1       -0.0010
     10 C         140.9624  138.5552  159.5394 C.ar    1  UNL1       -0.0192
     11 C         142.3867  138.9734  159.3229 C.ar    1  UNL1        0.0358
     12 C         142.8965  139.2068  157.9317 C.ar    1  UNL1        0.1721
     13 C         143.2974  138.1957  154.6744 C.3     1  UNL1        0.2526
     14 O         142.4921  139.2556  155.3657 O.3     1  UNL1       -0.4684
     15 O         144.3207  139.6249  157.7151 O.3     1  UNL1       -0.4684
     16 C         144.6541  141.0727  157.5087 C.3     1  UNL1        0.2526
     17 C         138.9230  137.6214  165.1044 C.3     1  UNL1        0.0724
     18 C         138.3665  138.7641  165.9008 C.3     1  UNL1        0.0219
     19 C         139.2363  139.9399  166.2340 C.3     1  UNL1        0.0304
     20 C         140.3220  139.8029  167.2599 C.3     1  UNL1        0.0518
     21 C         141.1918  140.9787  167.5930 C.3     1  UNL1        0.2057
     22 O         140.9760  142.2914  166.9003 O.3     1  UNL1       -0.4758
     23 C         139.8903  142.4285  165.8743 C.ar    1  UNL1        0.1345
     24 C         139.6744  143.7413  165.1816 C.ar    1  UNL1        0.0366
     25 C         138.5888  143.8783  164.1556 C.ar    1  UNL1        0.0031
     26 C         137.7190  142.7025  163.8225 C.ar    1  UNL1       -0.0001
     27 C         137.9348  141.3898  164.5153 C.ar    1  UNL1       -0.0013
     28 C         139.0205  141.2527  165.5412 C.ar    1  UNL1        0.0116
@<TRIPOS>BOND
     1    13    14    1
     2    14     7    1
     3     7     8   ar
     4     8     9   ar
     5     9    10   ar
     6    10     1    1
     7     1     2    1
     8     2     3    1
     9     3     4    1
    10     4    17    1
    11    17    18    1
    12    18    19    1
    13    19    20    1
    14    20    21    1
    15    21    22    1
    16    22    23    1
    17    23    24   ar
    18    24    25   ar
    19    25    26   ar
    20    26    27   ar
    21    27    28   ar
    22     4     5    1
    23     5     6    1
    24    10    11   ar
    25    11    12   ar
    26    12    15    1
    27    15    16    1
    28    12     7   ar
    29     6     1    1
    30    28    19    1
    31    28    23   ar
@<TRIPOS>MOLECULE
*****
 28 31 0 0 0
SMALL
GASTEIGER

@<TRIPOS>ATOM
      1 C         141.6561  143.3296  163.5281 C.3     1  UNL1        0.0252
      2 C         143.0445  142.8126  163.7631 C.3     1  UNL1        0.0217
      3 C         143.4644  142.3899  165.1397 C.3     1  UNL1        0.0724
      4 N         142.4959  142.4841  166.2813 N.3     1  UNL1       -0.2726
      5 C         141.1076  143.0010  166.0463 C.3     1  UNL1        0.0724
      6 C         140.6877  143.4238  164.6697 C.3     1  UNL1        0.0217
      7 C         140.3965  144.5979  159.3984 C.ar    1  UNL1        0.1724
      8 C         140.3470  145.5789  160.5320 C.ar    1  UNL1        0.0397
      9 C         140.7669  145.1561  161.9086 C.ar    1  UNL1       -0.0010
     10 C         141.2363  143.7524  162.1516 C.ar    1  UNL1       -0.0192
     11 C         141.2857  142.7713  161.0179 C.ar    1  UNL1        0.0358
     12 C         140.8659  143.1940  159.6413 C.ar    1  UNL1        0.1721
     13 C         140.8395  145.9570  157.2290 C.3     1  UNL1        0.2526
     14 O         139.9766  145.0207  158.0218 O.3     1  UNL1       -0.4684
     15 O         140.9153  142.2130  158.5077 O.3     1  UNL1       -0.4684
     16 C         142.0960  142.1947  157.5828 C.3     1  UNL1        0.2526
     17 C         142.9158  142.0613  167.6579 C.3     1  UNL1        0.0724
     18 C         142.5538  140.6975  168.1667 C.3     1  UNL1        0.0219
     19 C         141.1194  140.3561  168.4422 C.3     1  UNL1        0.0304
     20 C         140.5126  140.6848  169.7740 C.3     1  UNL1        0.0518
     21 C         139.0782  140.3434  170.0495 C.3     1  UNL1        0.2057
     22 O         138.2505  139.6734  168.9932 O.3     1  UNL1       -0.4758
     23 C         138.8572  139.3447  167.6613 C.ar    1  UNL1        0.1345
     24 C         138.0295  138.6747  166.6049 C.ar    1  UNL1        0.0366
     25 C         138.6362  138.3461  165.2731 C.ar    1  UNL1        0.0031
     26 C         140.0706  138.6874  164.9976 C.ar    1  UNL1       -0.0001
     27 C         140.8983  139.3574  166.0539 C.ar    1  UNL1       -0.0013
     28 C         140.2916  139.6861  167.3858 C.ar    1  UNL1        0.0116
@<TRIPOS>BOND
     1    13    14    1
     2    14     7    1
     3     7     8   ar
     4     8     9   ar
     5     9    10   ar
     6    10     1    1
     7     1     2    1
     8     2     3    1
     9     3     4    1
    10     4    17    1
    11    17    18    1
    12    18    19    1
    13    19    20    1
    14    20    21    1
    15    21    22    1
    16    22    23    1
    17    23    24   ar
    18    24    25   ar
    19    25    26   ar
    20    26    27   ar
    21    27    28   ar
    22     4     5    1
    23     5     6    1
    24    10    11   ar
    25    11    12   ar
    26    12    15    1
    27    15    16    1
    28    12     7   ar
    29     6     1    1
    30    28    19    1
    31    28    23   ar
@<TRIPOS>MOLECULE
*****
 28 31 0 0 0
SMALL
GASTEIGER

@<TRIPOS>ATOM
      1 C         140.3372  138.2588  160.9865 C.3     1  UNL1        0.0252
      2 C         138.8665  138.2106  161.2776 C.3     1  UNL1        0.0217
      3 C         138.3867  138.0027  162.6835 C.3     1  UNL1        0.0724
      4 N         139.3776  137.8429  163.7983 N.3     1  UNL1       -0.2726
      5 C         140.8482  137.8911  163.5071 C.3     1  UNL1        0.0724
      6 C         141.3281  138.0991  162.1012 C.3     1  UNL1        0.0217
      7 C         141.7766  138.8825  156.7688 C.ar    1  UNL1        0.1724
      8 C         142.7396  138.9911  157.9137 C.ar    1  UNL1        0.0397
      9 C         142.2598  138.7832  159.3196 C.ar    1  UNL1       -0.0010
     10 C         140.8170  138.4667  159.5806 C.ar    1  UNL1       -0.0192
     11 C         139.8540  138.3581  158.4357 C.ar    1  UNL1        0.0358
     12 C         140.3338  138.5660  157.0298 C.ar    1  UNL1        0.1721
     13 C         142.7758  137.9292  154.5682 C.3     1  UNL1        0.2526
     14 O         142.2564  139.0905  155.3629 O.3     1  UNL1       -0.4684
     15 O         139.3708  138.4575  155.8849 O.3     1  UNL1       -0.4684
     16 C         139.0212  137.1109  155.3240 C.3     1  UNL1        0.2526
     17 C         138.8978  137.6350  165.2042 C.3     1  UNL1        0.0724
     18 C         138.3006  138.7784  165.9697 C.3     1  UNL1        0.0219
     19 C         139.1199  140.0035  166.2487 C.3     1  UNL1        0.0304
     20 C         140.1480  139.9855  167.3408 C.3     1  UNL1        0.0518
     21 C         140.9673  141.2105  167.6199 C.3     1  UNL1        0.2057
     22 O         140.7586  142.4536  166.8068 O.3     1  UNL1       -0.4758
     23 C         139.7304  142.4717  165.7147 C.ar    1  UNL1        0.1345
     24 C         139.5217  143.7148  164.9016 C.ar    1  UNL1        0.0366
     25 C         138.4936  143.7328  163.8096 C.ar    1  UNL1        0.0031
     26 C         137.6743  142.5077  163.5305 C.ar    1  UNL1       -0.0001
     27 C         137.8830  141.2646  164.3435 C.ar    1  UNL1       -0.0013
     28 C         138.9111  141.2466  165.4356 C.ar    1  UNL1        0.0116
@<TRIPOS>BOND
     1    13    14    1
     2    14     7    1
     3     7     8   ar
     4     8     9   ar
     5     9    10   ar
     6    10     1    1
     7     1     2    1
     8     2     3    1
     9     3     4    1
    10     4    17    1
    11    17    18    1
    12    18    19    1
    13    19    20    1
    14    20    21    1
    15    21    22    1
    16    22    23    1
    17    23    24   ar
    18    24    25   ar
    19    25    26   ar
    20    26    27   ar
    21    27    28   ar
    22     4     5    1
    23     5     6    1
    24    10    11   ar
    25    11    12   ar
    26    12    15    1
    27    15    16    1
    28    12     7   ar
    29     6     1    1
    30    28    19    1
    31    28    23   ar
@<TRIPOS>MOLECULE
*****
 28 31 0 0 0
SMALL
GASTEIGER

@<TRIPOS>ATOM
      1 C         140.0391  143.8049  161.7928 C.3     1  UNL1        0.0252
      2 C         139.2845  142.6278  162.3361 C.3     1  UNL1        0.0217
      3 C         139.3216  142.3263  163.8050 C.3     1  UNL1        0.0724
      4 N         140.1133  143.2019  164.7306 N.3     1  UNL1       -0.2726
      5 C         140.8678  144.3789  164.1873 C.3     1  UNL1        0.0724
      6 C         140.8307  144.6804  162.7184 C.3     1  UNL1        0.0217
      7 C         139.9278  144.7095  157.3861 C.ar    1  UNL1        0.1724
      8 C         140.5111  145.7074  158.3420 C.ar    1  UNL1        0.0397
      9 C         140.5481  145.4059  159.8110 C.ar    1  UNL1       -0.0010
     10 C         140.0020  144.1065  160.3239 C.ar    1  UNL1       -0.0192
     11 C         139.4187  143.1085  159.3679 C.ar    1  UNL1        0.0358
     12 C         139.3816  143.4100  157.8990 C.ar    1  UNL1        0.1721
     13 C         138.8468  145.9376  155.3678 C.3     1  UNL1        0.2526
     14 O         139.8907  145.0111  155.9171 O.3     1  UNL1       -0.4684
     15 O         138.7984  142.4121  156.9430 O.3     1  UNL1       -0.4684
     16 C         137.3304  142.4371  156.6357 C.3     1  UNL1        0.2526
     17 C         140.1504  142.9003  166.1995 C.3     1  UNL1        0.0724
     18 C         141.3637  142.2570  166.8027 C.3     1  UNL1        0.0219
     19 C         141.9870  141.0637  166.1412 C.3     1  UNL1        0.0304
     20 C         141.3527  139.7117  166.2816 C.3     1  UNL1        0.0518
     21 C         141.9760  138.5185  165.6200 C.3     1  UNL1        0.2057
     22 O         143.2337  138.6772  164.8182 O.3     1  UNL1       -0.4758
     23 C         143.8681  140.0292  164.6778 C.ar    1  UNL1        0.1345
     24 C         145.1257  140.1879  163.8759 C.ar    1  UNL1        0.0366
     25 C         145.7601  141.5399  163.7355 C.ar    1  UNL1        0.0031
     26 C         145.1368  142.7331  164.3971 C.ar    1  UNL1       -0.0001
     27 C         143.8791  142.5744  165.1989 C.ar    1  UNL1       -0.0013
     28 C         143.2448  141.2225  165.3393 C.ar    1  UNL1        0.0116
@<TRIPOS>BOND
     1    13    14    1
     2    14     7    1
     3     7     8   ar
     4     8     9   ar
     5     9    10   ar
     6    10     1    1
     7     1     2    1
     8     2     3    1
     9     3     4    1
    10     4    17    1
    11    17    18    1
    12    18    19    1
    13    19    20    1
    14    20    21    1
    15    21    22    1
    16    22    23    1
    17    23    24   ar
    18    24    25   ar
    19    25    26   ar
    20    26    27   ar
    21    27    28   ar
    22     4     5    1
    23     5     6    1
    24    10    11   ar
    25    11    12   ar
    26    12    15    1
    27    15    16    1
    28    12     7   ar
    29     6     1    1
    30    28    19    1
    31    28    23   ar
@<TRIPOS>MOLECULE
*****
 28 31 0 0 0
SMALL
GASTEIGER

@<TRIPOS>ATOM
      1 C         140.5226  138.4757  160.1521 C.3     1  UNL1        0.0252
      2 C         139.6985  138.3931  158.9015 C.3     1  UNL1        0.0217
      3 C         140.3524  138.0606  157.5931 C.3     1  UNL1        0.0724
      4 N         141.8303  137.8107  157.5353 N.3     1  UNL1       -0.2726
      5 C         142.6544  137.8933  158.7860 C.3     1  UNL1        0.0724
      6 C         142.0005  138.2258  160.0944 C.3     1  UNL1        0.0217
      7 C         138.5610  139.4732  164.0773 C.ar    1  UNL1        0.1724
      8 C         139.5964  138.3899  164.0102 C.ar    1  UNL1        0.0397
      9 C         140.2503  138.0574  162.7018 C.ar    1  UNL1       -0.0010
     10 C         139.8688  138.8082  161.4605 C.ar    1  UNL1       -0.0192
     11 C         138.8333  139.8915  161.5276 C.ar    1  UNL1        0.0358
     12 C         138.1795  140.2240  162.8360 C.ar    1  UNL1        0.1721
     13 C         137.9628  138.8279  166.5218 C.3     1  UNL1        0.2526
     14 O         137.9072  139.8057  165.3857 O.3     1  UNL1       -0.4684
     15 O         137.1441  141.3072  162.9032 O.3     1  UNL1       -0.4684
     16 C         137.5459  142.7076  163.2602 C.3     1  UNL1        0.2526
     17 C         142.4842  137.4782  156.2269 C.3     1  UNL1        0.0724
     18 C         143.4724  136.3526  156.1470 C.3     1  UNL1        0.0219
     19 C         143.1550  135.1321  155.3349 C.3     1  UNL1        0.0304
     20 C         142.4219  135.2671  154.0333 C.3     1  UNL1        0.0518
     21 C         142.1044  134.0466  153.2211 C.3     1  UNL1        0.2057
     22 O         142.5201  132.6911  153.7106 O.3     1  UNL1       -0.4758
     23 C         143.2532  132.5560  155.0123 C.ar    1  UNL1        0.1345
     24 C         143.6689  131.2004  155.5018 C.ar    1  UNL1        0.0366
     25 C         144.4020  131.0654  156.8034 C.ar    1  UNL1        0.0031
     26 C         144.7195  132.2859  157.6156 C.ar    1  UNL1       -0.0001
     27 C         144.3038  133.6415  157.1261 C.ar    1  UNL1       -0.0013
     28 C         143.5707  133.7765  155.8244 C.ar    1  UNL1        0.0116
@<TRIPOS>BOND
     1    13    14    1
     2    14     7    1
     3     7     8   ar
     4     8     9   ar
     5     9    10   ar
     6    10     1    1
     7     1     2    1
     8     2     3    1
     9     3     4    1
    10     4    17    1
    11    17    18    1
    12    18    19    1
    13    19    20    1
    14    20    21    1
    15    21    22    1
    16    22    23    1
    17    23    24   ar
    18    24    25   ar
    19    25    26   ar
    20    26    27   ar
    21    27    28   ar
    22     4     5    1
    23     5     6    1
    24    10    11   ar
    25    11    12   ar
    26    12    15    1
    27    15    16    1
    28    12     7   ar
    29     6     1    1
    30    28    19    1
    31    28    23   ar
@<TRIPOS>MOLECULE
*****
 28 31 0 0 0
SMALL
GASTEIGER

@<TRIPOS>ATOM
      1 C         142.1344  138.3310  161.6121 C.3     1  UNL1        0.0252
      2 C         143.3513  139.1171  162.0011 C.3     1  UNL1        0.0217
      3 C         143.7342  139.2403  163.4462 C.3     1  UNL1        0.0724
      4 N         142.9002  138.5775  164.5022 N.3     1  UNL1       -0.2726
      5 C         141.6834  137.7914  164.1132 C.3     1  UNL1        0.0724
      6 C         141.3005  137.6682  162.6681 C.3     1  UNL1        0.0217
      7 C         140.9857  137.9611  157.2769 C.ar    1  UNL1        0.1724
      8 C         139.9523  138.3366  158.2972 C.ar    1  UNL1        0.0397
      9 C         140.3352  138.4599  159.7423 C.ar    1  UNL1       -0.0010
     10 C         141.7515  138.2077  160.1670 C.ar    1  UNL1       -0.0192
     11 C         142.7850  137.8322  159.1467 C.ar    1  UNL1        0.0358
     12 C         142.4021  137.7089  157.7016 C.ar    1  UNL1        0.1721
     13 C         139.3715  137.0737  155.4448 C.3     1  UNL1        0.2526
     14 O         140.6029  137.8379  155.8318 O.3     1  UNL1       -0.4684
     15 O         143.4355  137.3334  156.6813 O.3     1  UNL1       -0.4684
     16 C         143.9479  138.3634  155.7187 C.3     1  UNL1        0.2526
     17 C         143.2831  138.7008  165.9473 C.3     1  UNL1        0.0724
     18 C         142.7156  139.8107  166.7814 C.3     1  UNL1        0.0219
     19 C         141.7857  140.8128  166.1641 C.3     1  UNL1        0.0304
     20 C         140.3046  140.5772  166.1906 C.3     1  UNL1        0.0518
     21 C         139.3746  141.5792  165.5733 C.3     1  UNL1        0.2057
     22 O         139.9257  142.8169  164.9295 O.3     1  UNL1       -0.4758
     23 C         141.4069  143.0525  164.9031 C.ar    1  UNL1        0.1345
     24 C         141.9581  144.2901  164.2593 C.ar    1  UNL1        0.0366
     25 C         143.4392  144.5257  164.2329 C.ar    1  UNL1        0.0031
     26 C         144.3692  143.5237  164.8502 C.ar    1  UNL1       -0.0001
     27 C         143.8180  142.2861  165.4939 C.ar    1  UNL1       -0.0013
     28 C         142.3369  142.0505  165.5204 C.ar    1  UNL1        0.0116
@<TRIPOS>BOND
     1    13    14    1
     2    14     7    1
     3     7     8   ar
     4     8     9   ar
     5     9    10   ar
     6    10     1    1
     7     1     2    1
     8     2     3    1
     9     3     4    1
    10     4    17    1
    11    17    18    1
    12    18    19    1
    13    19    20    1
    14    20    21    1
    15    21    22    1
    16    22    23    1
    17    23    24   ar
    18    24    25   ar
    19    25    26   ar
    20    26    27   ar
    21    27    28   ar
    22     4     5    1
    23     5     6    1
    24    10    11   ar
    25    11    12   ar
    26    12    15    1
    27    15    16    1
    28    12     7   ar
    29     6     1    1
    30    28    19    1
    31    28    23   ar
