@<TRIPOS>MOLECULE
*****
 31 35 0 0 0
SMALL
GASTEIGER

@<TRIPOS>ATOM
      1 C         140.5524  137.5951  163.9910 C.3     1  UNL1        0.0545
      2 C         139.1375  137.4433  164.4655 C.3     1  UNL1        0.0162
      3 C         138.9720  138.2742  165.7033 C.3     1  UNL1        0.0095
      4 C         137.9953  138.6939  166.7615 C.3     1  UNL1        0.0005
      5 C         138.7043  139.6187  167.7061 C.3     1  UNL1        0.0005
      6 C         140.1191  139.7706  167.2316 C.3     1  UNL1        0.0087
      7 C         140.2846  138.9397  165.9938 C.3     1  UNL1        0.0704
      8 C         141.2613  138.5200  164.9355 C.3     1  UNL1        0.0243
      9 C         141.5971  139.6051  166.2843 C.2     1  UNL1        0.2250
     10 O         142.6115  138.9173  167.1491 O.2     1  UNL1       -0.2749
     11 N         141.8953  140.9584  165.7099 N.am    1  UNL1       -0.2750
     12 C         143.2079  141.6238  166.0004 C.3     1  UNL1        0.1000
     13 C         143.5060  142.9770  165.4260 C.3     1  UNL1        0.0670
     14 C         142.4916  143.6647  164.5611 C.ar    1  UNL1        0.0584
     15 N         142.7898  145.0180  163.9867 N.ar    1  UNL1       -0.2475
     16 C         141.7754  145.7057  163.1219 C.ar    1  UNL1        0.1097
     17 C         140.4628  145.0403  162.8314 C.ar    1  UNL1        0.0765
     18 CL        139.4484  145.7280  161.9666 Cl      1  UNL1       -0.0806
     19 C         140.1647  143.6871  163.4058 C.ar    1  UNL1        0.0115
     20 C         141.1791  142.9993  164.2706 C.ar    1  UNL1        0.0122
     21 C         140.8809  141.6461  164.8450 C.3     1  UNL1        0.1213
     22 N         141.1529  136.9376  162.7839 N.3     1  UNL1       -0.2975
     23 H         141.8481  136.2739  163.1253 H       1  UNL1        0.1232
     24 C         141.0179  138.3945  160.6369 C.3     1  UNL1        0.1591
     25 C         141.6927  139.2269  159.5873 C.3     1  UNL1        0.1729
     26 O         143.1774  139.4348  159.6350 O.3     1  UNL1       -0.3511
     27 C         143.9874  138.8103  160.7324 C.3     1  UNL1        0.1437
     28 C         143.3126  137.9779  161.7820 C.3     1  UNL1        0.0503
     29 C         141.8277  137.7700  161.7342 C.3     1  UNL1        0.0865
     30 C         138.6107  139.2393  161.1287 C.3     1  UNL1        0.1742
     31 O         139.5332  138.1865  160.5893 O.3     1  UNL1       -0.3496
@<TRIPOS>BOND
     1    30    31    1
     2    31    24    1
     3    24    25    1
     4    25    26    1
     5    26    27    1
     6    27    28    1
     7    28    29    1
     8    29    22    1
     9     1    22    1
    10     1     2    1
    11     3     2    1
    12     3     4    1
    13     4     5    1
    14     5     6    1
    15     6     7    1
    16     7     9    1
    17     9    10    2
    18     9    11   am
    19    11    12    1
    20    12    13    1
    21    13    14    1
    22    14    15   ar
    23    15    16   ar
    24    16    17   ar
    25    17    18    1
    26    17    19   ar
    27    19    20   ar
    28    20    21    1
    29     7     8    1
    30    29    24    1
    31     8     1    1
    32     7     3    1
    33    21    11    1
    34    20    14   ar
    35    22    23    1
@<TRIPOS>MOLECULE
*****
 31 35 0 0 0
SMALL
GASTEIGER

@<TRIPOS>ATOM
      1 C         141.1320  141.9708  162.0044 C.3     1  UNL1        0.0545
      2 C         140.8283  143.4264  161.8071 C.3     1  UNL1        0.0162
      3 C         139.5221  143.7231  162.4823 C.3     1  UNL1        0.0095
      4 C         138.5272  144.8061  162.7776 C.3     1  UNL1        0.0005
      5 C         137.4087  144.2032  163.5747 C.3     1  UNL1        0.0005
      6 C         137.7123  142.7476  163.7720 C.3     1  UNL1        0.0087
      7 C         139.0185  142.4508  163.0969 C.3     1  UNL1        0.0704
      8 C         140.0134  141.3679  162.8015 C.3     1  UNL1        0.0243
      9 C         138.5149  141.1786  163.7115 C.2     1  UNL1        0.2250
     10 O         137.6516  140.2493  162.9108 O.2     1  UNL1       -0.2749
     11 N         138.8746  140.8356  165.1268 N.am    1  UNL1       -0.2750
     12 C         138.3710  139.5634  165.7414 C.3     1  UNL1        0.1000
     13 C         138.7307  139.2204  167.1566 C.3     1  UNL1        0.0670
     14 C         139.5941  140.1498  167.9573 C.ar    1  UNL1        0.0584
     15 N         139.9538  139.8068  169.3726 N.ar    1  UNL1       -0.2475
     16 C         140.8171  140.7361  170.1732 C.ar    1  UNL1        0.1097
     17 C         141.3207  142.0084  169.5586 C.ar    1  UNL1        0.0765
     18 CL        142.1840  142.9377  170.3592 Cl      1  UNL1       -0.0806
     19 C         140.9610  142.3513  168.1433 C.ar    1  UNL1        0.0115
     20 C         140.0977  141.4220  167.3427 C.ar    1  UNL1        0.0122
     21 C         139.7379  141.7649  165.9274 C.3     1  UNL1        0.1213
     22 N         142.3418  141.2454  161.4942 N.3     1  UNL1       -0.2975
     23 H         142.0116  140.3668  161.0948 H       1  UNL1        0.1232
     24 C         144.5684  141.8842  162.6705 C.3     1  UNL1        0.1591
     25 C         145.6875  141.5401  163.6083 C.3     1  UNL1        0.1729
     26 O         145.6989  140.2131  164.3073 O.3     1  UNL1       -0.3511
     27 C         144.5913  139.2301  164.0687 C.3     1  UNL1        0.1437
     28 C         143.4722  139.5742  163.1310 C.3     1  UNL1        0.0503
     29 C         143.4608  140.9013  162.4319 C.3     1  UNL1        0.0865
     30 C         144.1595  144.4495  162.7191 C.3     1  UNL1        0.1742
     31 O         144.5570  143.2113  161.9715 O.3     1  UNL1       -0.3496
@<TRIPOS>BOND
     1    30    31    1
     2    31    24    1
     3    24    25    1
     4    25    26    1
     5    26    27    1
     6    27    28    1
     7    28    29    1
     8    29    22    1
     9     1    22    1
    10     1     2    1
    11     3     2    1
    12     3     4    1
    13     4     5    1
    14     5     6    1
    15     6     7    1
    16     7     9    1
    17     9    10    2
    18     9    11   am
    19    11    12    1
    20    12    13    1
    21    13    14    1
    22    14    15   ar
    23    15    16   ar
    24    16    17   ar
    25    17    18    1
    26    17    19   ar
    27    19    20   ar
    28    20    21    1
    29     7     8    1
    30    29    24    1
    31     8     1    1
    32     7     3    1
    33    21    11    1
    34    20    14   ar
    35    22    23    1
@<TRIPOS>MOLECULE
*****
 31 35 0 0 0
SMALL
GASTEIGER

@<TRIPOS>ATOM
      1 C         139.4096  139.4808  166.4888 C.3     1  UNL1        0.0545
      2 C         138.9782  139.8620  167.8739 C.3     1  UNL1        0.0162
      3 C         140.2112  140.0979  168.6949 C.3     1  UNL1        0.0095
      4 C         140.7066  140.4793  170.0584 C.3     1  UNL1        0.0005
      5 C         142.2062  140.4798  170.0234 C.3     1  UNL1        0.0005
      6 C         142.6376  140.0986  168.6382 C.3     1  UNL1        0.0087
      7 C         141.4046  139.8626  167.8172 C.3     1  UNL1        0.0704
      8 C         140.9092  139.4813  166.4537 C.3     1  UNL1        0.0243
      9 C         142.5980  139.6274  166.9395 C.2     1  UNL1        0.2250
     10 O         143.5196  138.4774  167.2191 O.2     1  UNL1       -0.2749
     11 N         142.8698  140.5421  165.7821 N.am    1  UNL1       -0.2750
     12 C         144.0632  140.3068  164.9044 C.3     1  UNL1        0.1000
     13 C         144.3350  141.2215  163.7471 C.3     1  UNL1        0.0670
     14 C         143.4134  142.3715  163.4675 C.ar    1  UNL1        0.0584
     15 N         143.6852  143.2862  162.3101 N.ar    1  UNL1       -0.2475
     16 C         142.7636  144.4362  162.0305 C.ar    1  UNL1        0.1097
     17 C         141.5702  144.6714  162.9083 C.ar    1  UNL1        0.0765
     18 CL        140.6485  145.8214  162.6287 Cl      1  UNL1       -0.0806
     19 C         141.2984  143.7567  164.0656 C.ar    1  UNL1        0.0115
     20 C         142.2200  142.6068  164.3452 C.ar    1  UNL1        0.0122
     21 C         141.9482  141.6921  165.5025 C.3     1  UNL1        0.1213
     22 N         138.5009  139.1562  165.3402 N.3     1  UNL1       -0.2975
     23 H         138.9274  138.3773  164.8384 H       1  UNL1        0.1232
     24 C         137.9919  139.8206  162.8807 C.3     1  UNL1        0.1591
     25 C         137.6708  140.8704  161.8585 C.3     1  UNL1        0.1729
     26 O         137.5377  142.3056  162.2737 O.3     1  UNL1       -0.3511
     27 C         137.7257  142.6911  163.7111 C.3     1  UNL1        0.1437
     28 C         138.0468  141.6413  164.7333 C.3     1  UNL1        0.0503
     29 C         138.1799  140.2060  164.3180 C.3     1  UNL1        0.0865
     30 C         139.0050  138.0181  161.3076 C.3     1  UNL1        0.1742
     31 O         138.1250  138.3854  162.4655 O.3     1  UNL1       -0.3496
@<TRIPOS>BOND
     1    30    31    1
     2    31    24    1
     3    24    25    1
     4    25    26    1
     5    26    27    1
     6    27    28    1
     7    28    29    1
     8    29    22    1
     9     1    22    1
    10     1     2    1
    11     3     2    1
    12     3     4    1
    13     4     5    1
    14     5     6    1
    15     6     7    1
    16     7     9    1
    17     9    10    2
    18     9    11   am
    19    11    12    1
    20    12    13    1
    21    13    14    1
    22    14    15   ar
    23    15    16   ar
    24    16    17   ar
    25    17    18    1
    26    17    19   ar
    27    19    20   ar
    28    20    21    1
    29     7     8    1
    30    29    24    1
    31     8     1    1
    32     7     3    1
    33    21    11    1
    34    20    14   ar
    35    22    23    1
@<TRIPOS>MOLECULE
*****
 31 35 0 0 0
SMALL
GASTEIGER

@<TRIPOS>ATOM
      1 C         142.4920  143.3440  163.2082 C.3     1  UNL1        0.0545
      2 C         143.9788  143.4263  163.3893 C.3     1  UNL1        0.0162
      3 C         144.4858  142.0476  163.6924 C.3     1  UNL1        0.0095
      4 C         145.7180  141.2463  163.9917 C.3     1  UNL1        0.0005
      5 C         145.3062  139.8166  164.1829 C.3     1  UNL1        0.0005
      6 C         143.8195  139.7343  164.0018 C.3     1  UNL1        0.0087
      7 C         143.3124  141.1131  163.6987 C.3     1  UNL1        0.0704
      8 C         142.0802  141.9144  163.3994 C.3     1  UNL1        0.0243
      9 C         142.1391  140.1787  163.7049 C.2     1  UNL1        0.2250
     10 O         141.8138  139.3750  162.4808 O.2     1  UNL1       -0.2749
     11 N         141.2909  140.0479  164.9352 N.am    1  UNL1       -0.2750
     12 C         140.1176  139.1135  164.9415 C.3     1  UNL1        0.1000
     13 C         139.2695  138.9828  166.1718 C.3     1  UNL1        0.0670
     14 C         139.5948  139.7865  167.3958 C.ar    1  UNL1        0.0584
     15 N         138.7467  139.6557  168.6261 N.ar    1  UNL1       -0.2475
     16 C         139.0720  140.4594  169.8502 C.ar    1  UNL1        0.1097
     17 C         140.2454  141.3938  169.8439 C.ar    1  UNL1        0.0765
     18 CL        140.5707  142.1975  171.0680 Cl      1  UNL1       -0.0806
     19 C         141.0935  141.5245  168.6136 C.ar    1  UNL1        0.0115
     20 C         140.7682  140.7209  167.3896 C.ar    1  UNL1        0.0122
     21 C         141.6162  140.8516  166.1593 C.3     1  UNL1        0.1213
     22 N         141.5776  144.4901  162.8915 N.3     1  UNL1       -0.2975
     23 H         142.0328  145.3345  163.2382 H       1  UNL1        0.1232
     24 C         139.0169  144.2902  162.5002 C.3     1  UNL1        0.1591
     25 C         137.6160  144.3021  163.0363 C.3     1  UNL1        0.1729
     26 O         137.3749  144.5261  164.4997 O.3     1  UNL1       -0.3511
     27 C         138.5347  144.7380  165.4271 C.3     1  UNL1        0.1437
     28 C         139.9356  144.7261  164.8911 C.3     1  UNL1        0.0503
     29 C         140.1767  144.5021  163.4275 C.3     1  UNL1        0.0865
     30 C         139.3712  142.6700  160.5003 C.3     1  UNL1        0.1742
     31 O         139.2581  144.0663  161.0368 O.3     1  UNL1       -0.3496
@<TRIPOS>BOND
     1    30    31    1
     2    31    24    1
     3    24    25    1
     4    25    26    1
     5    26    27    1
     6    27    28    1
     7    28    29    1
     8    29    22    1
     9     1    22    1
    10     1     2    1
    11     3     2    1
    12     3     4    1
    13     4     5    1
    14     5     6    1
    15     6     7    1
    16     7     9    1
    17     9    10    2
    18     9    11   am
    19    11    12    1
    20    12    13    1
    21    13    14    1
    22    14    15   ar
    23    15    16   ar
    24    16    17   ar
    25    17    18    1
    26    17    19   ar
    27    19    20   ar
    28    20    21    1
    29     7     8    1
    30    29    24    1
    31     8     1    1
    32     7     3    1
    33    21    11    1
    34    20    14   ar
    35    22    23    1
@<TRIPOS>MOLECULE
*****
 31 35 0 0 0
SMALL
GASTEIGER

@<TRIPOS>ATOM
      1 C         139.2513  138.3689  165.1050 C.3     1  UNL1        0.0545
      2 C         138.4041  138.6916  166.3000 C.3     1  UNL1        0.0162
      3 C         139.2413  139.4812  167.2621 C.3     1  UNL1        0.0095
      4 C         139.2351  140.1687  168.5952 C.3     1  UNL1        0.0005
      5 C         140.5959  140.7589  168.8187 C.3     1  UNL1        0.0005
      6 C         141.4431  140.4362  167.6237 C.3     1  UNL1        0.0087
      7 C         140.6060  139.6465  166.6616 C.3     1  UNL1        0.0704
      8 C         140.6121  138.9590  165.3285 C.3     1  UNL1        0.0243
      9 C         141.9705  139.8118  166.0612 C.2     1  UNL1        0.2250
     10 O         143.0786  138.8780  166.4488 O.2     1  UNL1       -0.2749
     11 N         142.2271  140.9109  165.0731 N.am    1  UNL1       -0.2750
     12 C         143.5917  141.0761  164.4727 C.3     1  UNL1        0.1000
     13 C         143.8482  142.1752  163.4847 C.3     1  UNL1        0.0670
     14 C         142.7402  143.1090  163.0971 C.ar    1  UNL1        0.0584
     15 N         142.9967  144.2081  162.1091 N.ar    1  UNL1       -0.2475
     16 C         141.8887  145.1419  161.7215 C.ar    1  UNL1        0.1097
     17 C         140.5240  144.9766  162.3220 C.ar    1  UNL1        0.0765
     18 CL        139.4160  145.9104  161.9344 Cl      1  UNL1       -0.0806
     19 C         140.2675  143.8776  163.3100 C.ar    1  UNL1        0.0115
     20 C         141.3756  142.9438  163.6976 C.ar    1  UNL1        0.0122
     21 C         141.1191  141.8447  164.6856 C.3     1  UNL1        0.1213
     22 N         138.8144  137.5923  163.8983 N.3     1  UNL1       -0.2975
     23 H         139.4002  136.7582  163.8569 H       1  UNL1        0.1232
     24 C         140.0852  138.0605  161.6811 C.3     1  UNL1        0.1591
     25 C         140.1371  138.6939  160.3224 C.3     1  UNL1        0.1729
     26 O         138.9702  139.4925  159.8221 O.3     1  UNL1       -0.3511
     27 C         137.7512  139.6578  160.6806 C.3     1  UNL1        0.1437
     28 C         137.6993  139.0243  162.0393 C.3     1  UNL1        0.0503
     29 C         138.8663  138.2257  162.5396 C.3     1  UNL1        0.0865
     30 C         142.5568  137.9422  162.4731 C.3     1  UNL1        0.1742
     31 O         141.2522  137.2618  162.1814 O.3     1  UNL1       -0.3496
@<TRIPOS>BOND
     1    30    31    1
     2    31    24    1
     3    24    25    1
     4    25    26    1
     5    26    27    1
     6    27    28    1
     7    28    29    1
     8    29    22    1
     9     1    22    1
    10     1     2    1
    11     3     2    1
    12     3     4    1
    13     4     5    1
    14     5     6    1
    15     6     7    1
    16     7     9    1
    17     9    10    2
    18     9    11   am
    19    11    12    1
    20    12    13    1
    21    13    14    1
    22    14    15   ar
    23    15    16   ar
    24    16    17   ar
    25    17    18    1
    26    17    19   ar
    27    19    20   ar
    28    20    21    1
    29     7     8    1
    30    29    24    1
    31     8     1    1
    32     7     3    1
    33    21    11    1
    34    20    14   ar
    35    22    23    1
@<TRIPOS>MOLECULE
*****
 31 35 0 0 0
SMALL
GASTEIGER

@<TRIPOS>ATOM
      1 C         142.6900  138.9775  166.0808 C.3     1  UNL1        0.0545
      2 C         142.8295  139.4936  167.4822 C.3     1  UNL1        0.0162
      3 C         141.4549  139.7810  168.0094 C.3     1  UNL1        0.0095
      4 C         140.6916  140.2776  169.2013 C.3     1  UNL1        0.0005
      5 C         139.2308  140.2460  168.8623 C.3     1  UNL1        0.0005
      6 C         139.0912  139.7299  167.4609 C.3     1  UNL1        0.0087
      7 C         140.4658  139.4425  166.9337 C.3     1  UNL1        0.0704
      8 C         141.2291  138.9459  165.7418 C.3     1  UNL1        0.0243
      9 C         139.4767  139.1039  165.8581 C.2     1  UNL1        0.2250
     10 O         138.7862  137.7724  165.8662 O.2     1  UNL1       -0.2749
     11 N         139.1781  140.0970  164.7742 N.am    1  UNL1       -0.2750
     12 C         138.1890  139.7585  163.6985 C.3     1  UNL1        0.1000
     13 C         137.8905  140.7515  162.6147 C.3     1  UNL1        0.0670
     14 C         138.5810  142.0831  162.6066 C.ar    1  UNL1        0.0584
     15 N         138.2824  143.0761  161.5227 N.ar    1  UNL1       -0.2475
     16 C         138.9730  144.4077  161.5145 C.ar    1  UNL1        0.1097
     17 C         139.9621  144.7462  162.5902 C.ar    1  UNL1        0.0765
     18 CL        140.6526  146.0778  162.5821 Cl      1  UNL1       -0.0806
     19 C         140.2606  143.7532  163.6740 C.ar    1  UNL1        0.0115
     20 C         139.5701  142.4216  163.6822 C.ar    1  UNL1        0.0122
     21 C         139.8686  141.4286  164.7660 C.3     1  UNL1        0.1213
     22 N         143.8139  138.5653  165.1769 N.3     1  UNL1       -0.2975
     23 H         144.6356  138.4386  165.7678 H       1  UNL1        0.1232
     24 C         143.8123  139.1258  162.6401 C.3     1  UNL1        0.1591
     25 C         144.2275  140.0154  161.5060 C.3     1  UNL1        0.1729
     26 O         145.0595  141.2342  161.7747 O.3     1  UNL1       -0.3511
     27 C         145.4764  141.5634  163.1775 C.3     1  UNL1        0.1437
     28 C         145.0612  140.6738  164.3116 C.3     1  UNL1        0.0503
     29 C         144.2291  139.4549  164.0428 C.3     1  UNL1        0.0865
     30 C         141.4970  138.0366  162.1890 C.3     1  UNL1        0.1742
     31 O         142.9803  137.9070  162.3714 O.3     1  UNL1       -0.3496
@<TRIPOS>BOND
     1    30    31    1
     2    31    24    1
     3    24    25    1
     4    25    26    1
     5    26    27    1
     6    27    28    1
     7    28    29    1
     8    29    22    1
     9     1    22    1
    10     1     2    1
    11     3     2    1
    12     3     4    1
    13     4     5    1
    14     5     6    1
    15     6     7    1
    16     7     9    1
    17     9    10    2
    18     9    11   am
    19    11    12    1
    20    12    13    1
    21    13    14    1
    22    14    15   ar
    23    15    16   ar
    24    16    17   ar
    25    17    18    1
    26    17    19   ar
    27    19    20   ar
    28    20    21    1
    29     7     8    1
    30    29    24    1
    31     8     1    1
    32     7     3    1
    33    21    11    1
    34    20    14   ar
    35    22    23    1
@<TRIPOS>MOLECULE
*****
 31 35 0 0 0
SMALL
GASTEIGER

@<TRIPOS>ATOM
      1 C         139.9899  143.8192  162.3789 C.3     1  UNL1        0.0545
      2 C         140.7218  145.1166  162.5545 C.3     1  UNL1        0.0162
      3 C         142.0011  144.8321  163.2842 C.3     1  UNL1        0.0095
      4 C         143.2441  145.4580  163.8437 C.3     1  UNL1        0.0005
      5 C         144.0710  144.3716  164.4649 C.3     1  UNL1        0.0005
      6 C         143.3391  143.0741  164.2893 C.3     1  UNL1        0.0087
      7 C         142.0598  143.3587  163.5596 C.3     1  UNL1        0.0704
      8 C         140.8168  142.7327  163.0001 C.3     1  UNL1        0.0243
      9 C         142.1185  141.8854  163.8350 C.2     1  UNL1        0.2250
     10 O         142.5920  140.9415  162.7696 O.2     1  UNL1       -0.2749
     11 N         141.7037  141.3558  165.1757 N.am    1  UNL1       -0.2750
     12 C         141.7624  139.8825  165.4511 C.3     1  UNL1        0.1000
     13 C         141.3476  139.3530  166.7918 C.3     1  UNL1        0.0670
     14 C         140.8741  140.2969  167.8571 C.ar    1  UNL1        0.0584
     15 N         140.4593  139.7673  169.1979 N.ar    1  UNL1       -0.2475
     16 C         139.9858  140.7111  170.2633 C.ar    1  UNL1        0.1097
     17 C         139.9271  142.1845  169.9879 C.ar    1  UNL1        0.0765
     18 CL        139.4537  143.1284  171.0532 Cl      1  UNL1       -0.0806
     19 C         140.3419  142.7140  168.6472 C.ar    1  UNL1        0.0115
     20 C         140.8154  141.7702  167.5818 C.ar    1  UNL1        0.0122
     21 C         141.2302  142.2996  166.2411 C.3     1  UNL1        0.1213
     22 N         138.6638  143.6396  161.7011 N.3     1  UNL1       -0.2975
     23 H         137.9514  143.6926  162.4292 H       1  UNL1        0.1232
     24 C         137.7688  141.2033  161.5865 C.3     1  UNL1        0.1591
     25 C         137.4916  139.9569  160.7993 C.3     1  UNL1        0.1729
     26 O         137.8320  139.9005  159.3396 O.3     1  UNL1       -0.3511
     27 C         138.4497  141.0905  158.6670 C.3     1  UNL1        0.1437
     28 C         138.7270  142.3369  159.4541 C.3     1  UNL1        0.0503
     29 C         138.3865  142.3932  160.9140 C.3     1  UNL1        0.0865
     30 C         138.2261  140.4606  164.0339 C.3     1  UNL1        0.1742
     31 O         137.4284  141.2597  163.0462 O.3     1  UNL1       -0.3496
@<TRIPOS>BOND
     1    30    31    1
     2    31    24    1
     3    24    25    1
     4    25    26    1
     5    26    27    1
     6    27    28    1
     7    28    29    1
     8    29    22    1
     9     1    22    1
    10     1     2    1
    11     3     2    1
    12     3     4    1
    13     4     5    1
    14     5     6    1
    15     6     7    1
    16     7     9    1
    17     9    10    2
    18     9    11   am
    19    11    12    1
    20    12    13    1
    21    13    14    1
    22    14    15   ar
    23    15    16   ar
    24    16    17   ar
    25    17    18    1
    26    17    19   ar
    27    19    20   ar
    28    20    21    1
    29     7     8    1
    30    29    24    1
    31     8     1    1
    32     7     3    1
    33    21    11    1
    34    20    14   ar
    35    22    23    1
@<TRIPOS>MOLECULE
*****
 31 35 0 0 0
SMALL
GASTEIGER

@<TRIPOS>ATOM
      1 C         140.2153  141.8195  161.3966 C.3     1  UNL1        0.0545
      2 C         138.7941  141.3633  161.2481 C.3     1  UNL1        0.0162
      3 C         138.7077  139.9485  161.7389 C.3     1  UNL1        0.0095
      4 C         137.7760  138.7921  161.9505 C.3     1  UNL1        0.0005
      5 C         138.5680  137.6593  162.5332 C.3     1  UNL1        0.0005
      6 C         139.9892  138.1155  162.6818 C.3     1  UNL1        0.0087
      7 C         140.0756  139.5303  162.1909 C.3     1  UNL1        0.0704
      8 C         141.0073  140.6867  161.9793 C.3     1  UNL1        0.0243
      9 C         141.4434  139.1122  162.6428 C.2     1  UNL1        0.2250
     10 O         142.4611  138.6631  161.6366 O.2     1  UNL1       -0.2749
     11 N         141.7935  139.1431  164.1011 N.am    1  UNL1       -0.2750
     12 C         143.1613  138.7250  164.5531 C.3     1  UNL1        0.1000
     13 C         143.5114  138.7560  166.0113 C.3     1  UNL1        0.0670
     14 C         142.4937  139.2051  167.0176 C.ar    1  UNL1        0.0584
     15 N         142.8438  139.2360  168.4758 N.ar    1  UNL1       -0.2475
     16 C         141.8261  139.6851  169.4821 C.ar    1  UNL1        0.1097
     17 C         140.4583  140.1033  169.0301 C.ar    1  UNL1        0.0765
     18 CL        139.4406  140.5523  170.0364 Cl      1  UNL1       -0.0806
     19 C         140.1082  140.0723  167.5719 C.ar    1  UNL1        0.0115
     20 C         141.1259  139.6232  166.5656 C.ar    1  UNL1        0.0122
     21 C         140.7758  139.5922  165.1074 C.3     1  UNL1        0.1213
     22 N         140.7506  143.1712  161.0273 N.3     1  UNL1       -0.2975
     23 H         141.1922  143.0733  160.1131 H       1  UNL1        0.1232
     24 C         141.2794  144.8346  162.9518 C.3     1  UNL1        0.1591
     25 C         142.2751  145.5160  163.8429 C.3     1  UNL1        0.1729
     26 O         143.7378  145.2155  163.7008 O.3     1  UNL1       -0.3511
     27 C         144.2048  144.2335  162.6675 C.3     1  UNL1        0.1437
     28 C         143.2091  143.5521  161.7763 C.3     1  UNL1        0.0503
     29 C         141.7463  143.8526  161.9185 C.3     1  UNL1        0.0865
     30 C         138.9594  144.2849  163.9840 C.3     1  UNL1        0.1742
     31 O         139.8167  145.1351  163.0939 O.3     1  UNL1       -0.3496
@<TRIPOS>BOND
     1    30    31    1
     2    31    24    1
     3    24    25    1
     4    25    26    1
     5    26    27    1
     6    27    28    1
     7    28    29    1
     8    29    22    1
     9     1    22    1
    10     1     2    1
    11     3     2    1
    12     3     4    1
    13     4     5    1
    14     5     6    1
    15     6     7    1
    16     7     9    1
    17     9    10    2
    18     9    11   am
    19    11    12    1
    20    12    13    1
    21    13    14    1
    22    14    15   ar
    23    15    16   ar
    24    16    17   ar
    25    17    18    1
    26    17    19   ar
    27    19    20   ar
    28    20    21    1
    29     7     8    1
    30    29    24    1
    31     8     1    1
    32     7     3    1
    33    21    11    1
    34    20    14   ar
    35    22    23    1
@<TRIPOS>MOLECULE
*****
 31 35 0 0 0
SMALL
GASTEIGER

@<TRIPOS>ATOM
      1 C         140.2960  141.7563  161.3271 C.3     1  UNL1        0.0545
      2 C         138.8686  141.3250  161.1652 C.3     1  UNL1        0.0162
      3 C         138.7467  139.9221  161.6819 C.3     1  UNL1        0.0095
      4 C         137.7892  138.7885  161.9011 C.3     1  UNL1        0.0005
      5 C         138.5497  137.6521  162.5180 C.3     1  UNL1        0.0005
      6 C         139.9772  138.0834  162.6799 C.3     1  UNL1        0.0087
      7 C         140.0990  139.4863  162.1632 C.3     1  UNL1        0.0704
      8 C         141.0565  140.6199  161.9439 C.3     1  UNL1        0.0243
      9 C         141.4512  139.0506  162.6445 C.2     1  UNL1        0.2250
     10 O         142.4746  138.5607  161.6633 O.2     1  UNL1       -0.2749
     11 N         141.7800  139.1047  164.1070 N.am    1  UNL1       -0.2750
     12 C         143.1322  138.6690  164.5883 C.3     1  UNL1        0.1000
     13 C         143.4610  138.7231  166.0508 C.3     1  UNL1        0.0670
     14 C         142.4377  139.2130  167.0320 C.ar    1  UNL1        0.0584
     15 N         142.7665  139.2671  168.4946 N.ar    1  UNL1       -0.2475
     16 C         141.7431  139.7569  169.4758 C.ar    1  UNL1        0.1097
     17 C         140.3909  140.1926  168.9944 C.ar    1  UNL1        0.0765
     18 CL        139.3675  140.6825  169.9756 Cl      1  UNL1       -0.0806
     19 C         140.0621  140.1385  167.5319 C.ar    1  UNL1        0.0115
     20 C         141.0855  139.6487  166.5507 C.ar    1  UNL1        0.0122
     21 C         140.7567  139.5945  165.0882 C.3     1  UNL1        0.1213
     22 N         140.8635  143.0899  160.9402 N.3     1  UNL1       -0.2975
     23 H         141.3852  142.9481  160.0752 H       1  UNL1        0.1232
     24 C         143.2615  143.6398  161.7752 C.3     1  UNL1        0.1591
     25 C         144.1740  144.3684  162.7168 C.3     1  UNL1        0.1729
     26 O         143.6010  145.2754  163.7650 O.3     1  UNL1       -0.3511
     27 C         142.1154  145.4539  163.8717 C.3     1  UNL1        0.1437
     28 C         141.2029  144.7254  162.9301 C.3     1  UNL1        0.0503
     29 C         141.7760  143.8184  161.8818 C.3     1  UNL1        0.0865
     30 C         144.4869  141.4426  161.1267 C.3     1  UNL1        0.1742
     31 O         143.8345  142.7328  160.7269 O.3     1  UNL1       -0.3496
@<TRIPOS>BOND
     1    30    31    1
     2    31    24    1
     3    24    25    1
     4    25    26    1
     5    26    27    1
     6    27    28    1
     7    28    29    1
     8    29    22    1
     9     1    22    1
    10     1     2    1
    11     3     2    1
    12     3     4    1
    13     4     5    1
    14     5     6    1
    15     6     7    1
    16     7     9    1
    17     9    10    2
    18     9    11   am
    19    11    12    1
    20    12    13    1
    21    13    14    1
    22    14    15   ar
    23    15    16   ar
    24    16    17   ar
    25    17    18    1
    26    17    19   ar
    27    19    20   ar
    28    20    21    1
    29     7     8    1
    30    29    24    1
    31     8     1    1
    32     7     3    1
    33    21    11    1
    34    20    14   ar
    35    22    23    1
