@<TRIPOS>MOLECULE
*****
 36 40 0 0 0
SMALL
GASTEIGER

@<TRIPOS>ATOM
      1 C         143.3871  142.0670  162.4667 C.ar    1  UNL1        0.1074
      2 C         144.7825  141.5217  162.5402 C.ar    1  UNL1        0.0588
      3 S         144.9649  140.8955  163.8910 S.2     1  UNL1       -0.0508
      4 C         143.6822  141.0538  164.6523 C.ar    1  UNL1        0.1646
      5 N         142.7071  141.7779  163.7720 N.ar    1  UNL1       -0.2224
      6 C         141.0069  144.4116  160.3248 C.ar    1  UNL1        0.2416
      7 N         141.6154  143.7018  161.4978 N.ar    1  UNL1       -0.2089
      8 C         142.7786  142.7768  161.2938 C.ar    1  UNL1        0.1026
      9 C         143.3332  142.5617  159.9167 C.ar    1  UNL1        0.0224
     10 C         142.7246  143.2716  158.7437 C.ar    1  UNL1        0.0239
     11 C         141.5615  144.1965  158.9478 C.ar    1  UNL1        0.1189
     12 N         140.9529  144.9063  157.7749 N.ar    1  UNL1       -0.2826
     13 C         141.5470  146.0756  157.0467 C.ar    1  UNL1        0.1826
     14 N         140.6047  146.4634  155.9460 N.ar    1  UNL1       -0.2280
     15 C         139.4283  145.5340  155.9938 C.ar    1  UNL1        0.0786
     16 C         138.2445  145.5620  155.0730 C.3     1  UNL1        0.0538
     17 C         139.6435  144.5716  157.1242 C.ar    1  UNL1        0.0963
     18 C         139.7836  146.2081  161.7482 C.3     1  UNL1        0.2543
     19 O         139.8438  145.3365  160.5289 O.3     1  UNL1       -0.4551
     20 N         143.4206  140.5726  166.0488 N.pl3   1  UNL1       -0.2786
     21 H         144.1716  140.3024  166.6251 H       1  UNL1        0.1555
     22 C         142.0147  140.5032  166.5670 C.ar    1  UNL1        0.1276
     23 C         140.9535  139.5457  166.1119 C.ar    1  UNL1        0.0244
     24 C         139.7061  139.8298  166.8950 C.ar    1  UNL1        0.0773
     25 N         139.9963  140.9629  167.8341 N.ar    1  UNL1       -0.1728
     26 N         141.4231  141.3791  167.6314 N.ar    1  UNL1       -0.2359
     27 C         138.4671  139.0200  166.6517 C.3     1  UNL1        0.0474
     28 C         138.4756  137.9262  165.6254 C.3     1  UNL1        0.0067
     29 C         139.7230  137.6421  164.8423 C.3     1  UNL1        0.0052
     30 C         140.9620  138.4518  165.0856 C.3     1  UNL1        0.0305
     31 C         142.1335  142.4781  168.3644 C.3     1  UNL1        0.1555
     32 C         142.1931  142.4637  169.8631 C.3     1  UNL1        0.1110
     33 C         141.1124  143.5026  169.9161 C.3     1  UNL1        0.0314
     34 C         143.2738  141.4248  169.8102 C.3     1  UNL1        0.0314
     35 O         142.2526  142.4493  171.3619 O.3     1  UNL1       -0.3848
     36 H         141.6066  143.0796  171.7173 H       1  UNL1        0.2103
@<TRIPOS>BOND
     1    18    19    1
     2    19     6    1
     3     6     7   ar
     4     7     8   ar
     5     8     1    1
     6     1     2   ar
     7     2     3   ar
     8     3     4   ar
     9     4    20    1
    10    20    22    1
    11    22    23   ar
    12    23    24   ar
    13    24    25   ar
    14    25    26   ar
    15    26    31    1
    16    31    32    1
    17    32    33    1
    18    32    34    1
    19    32    35    1
    20    24    27    1
    21    27    28    1
    22    28    29    1
    23    29    30    1
    24     4     5   ar
    25     8     9   ar
    26     9    10   ar
    27    10    11   ar
    28    11    12    1
    29    12    13   ar
    30    13    14   ar
    31    14    15   ar
    32    15    16    1
    33    15    17   ar
    34    11     6   ar
    35    17    12   ar
    36     5     1   ar
    37    26    22   ar
    38    30    23    1
    39    20    21    1
    40    35    36    1
@<TRIPOS>MOLECULE
*****
 36 40 0 0 0
SMALL
GASTEIGER

@<TRIPOS>ATOM
      1 C         141.7062  138.7782  159.8845 C.ar    1  UNL1        0.1074
      2 C         141.7072  139.8814  158.8682 C.ar    1  UNL1        0.0588
      3 S         142.3557  139.3610  157.6198 S.2     1  UNL1       -0.0508
      4 C         142.7554  137.9361  157.8645 C.ar    1  UNL1        0.1646
      5 N         142.3540  137.5759  159.2641 N.ar    1  UNL1       -0.2224
      6 C         139.7547  140.1173  163.0702 C.ar    1  UNL1        0.2416
      7 N         140.3067  140.0332  161.6779 N.ar    1  UNL1       -0.2089
      8 C         141.1542  138.8624  161.2766 C.ar    1  UNL1        0.1026
      9 C         141.4498  137.7758  162.2676 C.ar    1  UNL1        0.0224
     10 C         140.8977  137.8600  163.6599 C.ar    1  UNL1        0.0239
     11 C         140.0502  139.0308  164.0611 C.ar    1  UNL1        0.1189
     12 N         139.4983  139.1151  165.4533 N.ar    1  UNL1       -0.2826
     13 C         138.2726  138.4140  165.9598 C.ar    1  UNL1        0.1826
     14 N         138.0919  138.7807  167.4029 N.ar    1  UNL1       -0.2280
     15 C         139.2058  139.7085  167.7885 C.ar    1  UNL1        0.0786
     16 C         139.4139  140.3220  169.1413 C.3     1  UNL1        0.0538
     17 C         140.0750  139.9151  166.5834 C.ar    1  UNL1        0.0963
     18 C         137.4590  141.3337  163.0834 C.3     1  UNL1        0.2543
     19 O         138.9072  141.2881  163.4714 O.3     1  UNL1       -0.4551
     20 N         143.4370  137.0304  156.8819 N.pl3   1  UNL1       -0.2786
     21 H         144.3517  137.2322  156.5789 H       1  UNL1        0.1555
     22 C         142.7249  135.8173  156.3612 C.ar    1  UNL1        0.1276
     23 C         143.0903  134.3905  156.6458 C.ar    1  UNL1        0.0244
     24 C         142.1136  133.5094  155.9249 C.ar    1  UNL1        0.0773
     25 N         141.1446  134.3915  155.1949 N.ar    1  UNL1       -0.1728
     26 N         141.5224  135.8179  155.4645 N.ar    1  UNL1       -0.2359
     27 C         142.2327  132.0176  156.0264 C.3     1  UNL1        0.0474
     28 C         143.3285  131.4070  156.8488 C.3     1  UNL1        0.0067
     29 C         144.3052  132.2882  157.5696 C.3     1  UNL1        0.0052
     30 C         144.1861  133.7799  157.4681 C.3     1  UNL1        0.0305
     31 C         140.8209  137.0317  154.9311 C.3     1  UNL1        0.1555
     32 C         139.3309  137.1520  155.0552 C.3     1  UNL1        0.1110
     33 C         139.4712  137.3648  156.5333 C.3     1  UNL1        0.0314
     34 C         139.1907  136.9391  153.5770 C.3     1  UNL1        0.0314
     35 O         137.8409  137.2722  155.1793 O.3     1  UNL1       -0.3848
     36 H         137.6053  137.4280  156.1073 H       1  UNL1        0.2103
@<TRIPOS>BOND
     1    18    19    1
     2    19     6    1
     3     6     7   ar
     4     7     8   ar
     5     8     1    1
     6     1     2   ar
     7     2     3   ar
     8     3     4   ar
     9     4    20    1
    10    20    22    1
    11    22    23   ar
    12    23    24   ar
    13    24    25   ar
    14    25    26   ar
    15    26    31    1
    16    31    32    1
    17    32    33    1
    18    32    34    1
    19    32    35    1
    20    24    27    1
    21    27    28    1
    22    28    29    1
    23    29    30    1
    24     4     5   ar
    25     8     9   ar
    26     9    10   ar
    27    10    11   ar
    28    11    12    1
    29    12    13   ar
    30    13    14   ar
    31    14    15   ar
    32    15    16    1
    33    15    17   ar
    34    11     6   ar
    35    17    12   ar
    36     5     1   ar
    37    26    22   ar
    38    30    23    1
    39    20    21    1
    40    35    36    1
@<TRIPOS>MOLECULE
*****
 36 40 0 0 0
SMALL
GASTEIGER

@<TRIPOS>ATOM
      1 C         139.9109  139.7252  159.8443 C.ar    1  UNL1        0.1074
      2 C         139.0389  140.9424  159.7548 C.ar    1  UNL1        0.0588
      3 S         138.9317  141.5377  161.1275 S.2     1  UNL1       -0.0508
      4 C         139.7373  140.6883  162.0653 C.ar    1  UNL1        0.1646
      5 N         140.3425  139.5681  161.2722 N.ar    1  UNL1       -0.2224
      6 C         139.5998  137.4018  156.6419 C.ar    1  UNL1        0.2416
      7 N         139.2252  138.3037  157.7805 N.ar    1  UNL1       -0.2089
      8 C         140.2854  138.8234  158.7057 C.ar    1  UNL1        0.1026
      9 C         141.7201  138.4413  158.4922 C.ar    1  UNL1        0.0224
     10 C         142.0946  137.5395  157.3535 C.ar    1  UNL1        0.0239
     11 C         141.0344  137.0198  156.4284 C.ar    1  UNL1        0.1189
     12 N         141.4090  136.1180  155.2898 N.ar    1  UNL1       -0.2826
     13 C         141.7633  136.5545  153.8991 C.ar    1  UNL1        0.1826
     14 N         142.0683  135.3277  153.0917 N.ar    1  UNL1       -0.2280
     15 C         141.9024  134.1328  153.9835 C.ar    1  UNL1        0.0786
     16 C         142.1079  132.7010  153.5864 C.3     1  UNL1        0.0538
     17 C         141.4949  134.6214  155.3419 C.ar    1  UNL1        0.0963
     18 C         138.1069  137.7007  154.5367 C.3     1  UNL1        0.2543
     19 O         138.5396  136.8821  155.7168 O.3     1  UNL1       -0.4551
     20 N         139.9079  140.9186  163.5377 N.pl3   1  UNL1       -0.2786
     21 H         139.1332  140.8439  164.1407 H       1  UNL1        0.1555
     22 C         141.2589  141.2627  164.0915 C.ar    1  UNL1        0.1276
     23 C         141.9122  142.6122  164.0472 C.ar    1  UNL1        0.0244
     24 C         143.2507  142.5012  164.7150 C.ar    1  UNL1        0.0773
     25 N         143.4246  141.0832  165.1721 N.ar    1  UNL1       -0.1728
     26 N         142.1935  140.3177  164.7867 N.ar    1  UNL1       -0.2359
     27 C         144.1383  143.7058  164.8207 C.3     1  UNL1        0.0474
     28 C         143.6874  145.0213  164.2585 C.3     1  UNL1        0.0067
     29 C         142.3489  145.1322  163.5907 C.3     1  UNL1        0.0052
     30 C         141.4613  143.9277  163.4850 C.3     1  UNL1        0.0305
     31 C         141.9414  138.8627  165.0503 C.3     1  UNL1        0.1555
     32 C         141.7081  137.9225  163.9051 C.3     1  UNL1        0.1110
     33 C         140.4187  137.4802  164.5310 C.3     1  UNL1        0.0314
     34 C         142.9975  138.3647  163.2793 C.3     1  UNL1        0.0314
     35 O         141.4747  136.9822  162.7599 O.3     1  UNL1       -0.3848
     36 H         140.6382  136.5099  162.8946 H       1  UNL1        0.2103
@<TRIPOS>BOND
     1    18    19    1
     2    19     6    1
     3     6     7   ar
     4     7     8   ar
     5     8     1    1
     6     1     2   ar
     7     2     3   ar
     8     3     4   ar
     9     4    20    1
    10    20    22    1
    11    22    23   ar
    12    23    24   ar
    13    24    25   ar
    14    25    26   ar
    15    26    31    1
    16    31    32    1
    17    32    33    1
    18    32    34    1
    19    32    35    1
    20    24    27    1
    21    27    28    1
    22    28    29    1
    23    29    30    1
    24     4     5   ar
    25     8     9   ar
    26     9    10   ar
    27    10    11   ar
    28    11    12    1
    29    12    13   ar
    30    13    14   ar
    31    14    15   ar
    32    15    16    1
    33    15    17   ar
    34    11     6   ar
    35    17    12   ar
    36     5     1   ar
    37    26    22   ar
    38    30    23    1
    39    20    21    1
    40    35    36    1
@<TRIPOS>MOLECULE
*****
 36 40 0 0 0
SMALL
GASTEIGER

@<TRIPOS>ATOM
      1 C         142.9426  138.2834  158.4723 C.ar    1  UNL1        0.1074
      2 C         142.6621  139.7423  158.2649 C.ar    1  UNL1        0.0588
      3 S         143.1907  140.4894  159.4534 S.2     1  UNL1       -0.0508
      4 C         143.7979  139.4922  160.3952 C.ar    1  UNL1        0.1646
      5 N         143.6446  138.1289  159.7888 N.ar    1  UNL1       -0.2224
      6 C         143.1447  134.8899  156.4245 C.ar    1  UNL1        0.2416
      7 N         143.5033  135.9994  157.3681 N.ar    1  UNL1       -0.2089
      8 C         142.5841  137.1739  157.5287 C.ar    1  UNL1        0.1026
      9 C         141.3063  137.2388  156.7456 C.ar    1  UNL1        0.0224
     10 C         140.9478  136.1292  155.8020 C.ar    1  UNL1        0.0239
     11 C         141.8671  134.9548  155.6415 C.ar    1  UNL1        0.1189
     12 N         141.5085  133.8452  154.6979 N.ar    1  UNL1       -0.2826
     13 C         141.5844  133.9019  153.2008 C.ar    1  UNL1        0.1826
     14 N         141.1340  132.5760  152.6633 N.ar    1  UNL1       -0.2280
     15 C         140.7797  131.6997  153.8282 C.ar    1  UNL1        0.0786
     16 C         140.2814  130.2871  153.7495 C.3     1  UNL1        0.0538
     17 C         141.0112  132.4843  155.0856 C.ar    1  UNL1        0.0963
     18 C         144.0560  132.6124  157.2804 C.3     1  UNL1        0.2543
     19 O         144.0639  133.7155  156.2640 O.3     1  UNL1       -0.4551
     20 N         144.4449  139.8038  161.7122 N.pl3   1  UNL1       -0.2786
     21 H         145.4262  139.7999  161.7917 H       1  UNL1        0.1555
     22 C         143.5968  140.1211  162.9080 C.ar    1  UNL1        0.1276
     23 C         142.5181  139.2498  163.4801 C.ar    1  UNL1        0.0244
     24 C         141.9330  139.9557  164.6673 C.ar    1  UNL1        0.0773
     25 N         142.6502  141.2632  164.8289 N.ar    1  UNL1       -0.1728
     26 N         143.6784  141.3655  163.7416 N.ar    1  UNL1       -0.2359
     27 C         140.8229  139.3167  165.4478 C.3     1  UNL1        0.0474
     28 C         140.2979  137.9717  165.0411 C.3     1  UNL1        0.0067
     29 C         140.8829  137.2659  163.8539 C.3     1  UNL1        0.0052
     30 C         141.9930  137.9049  163.0734 C.3     1  UNL1        0.0305
     31 C         144.6225  142.5110  163.5258 C.3     1  UNL1        0.1555
     32 C         144.0970  143.8409  163.0730 C.3     1  UNL1        0.1110
     33 C         144.0415  144.3043  164.4986 C.3     1  UNL1        0.0314
     34 C         144.1526  143.3776  161.6475 C.3     1  UNL1        0.0314
     35 O         143.5715  145.1709  162.6203 O.3     1  UNL1       -0.3848
     36 H         143.4243  145.7401  163.3919 H       1  UNL1        0.2103
@<TRIPOS>BOND
     1    18    19    1
     2    19     6    1
     3     6     7   ar
     4     7     8   ar
     5     8     1    1
     6     1     2   ar
     7     2     3   ar
     8     3     4   ar
     9     4    20    1
    10    20    22    1
    11    22    23   ar
    12    23    24   ar
    13    24    25   ar
    14    25    26   ar
    15    26    31    1
    16    31    32    1
    17    32    33    1
    18    32    34    1
    19    32    35    1
    20    24    27    1
    21    27    28    1
    22    28    29    1
    23    29    30    1
    24     4     5   ar
    25     8     9   ar
    26     9    10   ar
    27    10    11   ar
    28    11    12    1
    29    12    13   ar
    30    13    14   ar
    31    14    15   ar
    32    15    16    1
    33    15    17   ar
    34    11     6   ar
    35    17    12   ar
    36     5     1   ar
    37    26    22   ar
    38    30    23    1
    39    20    21    1
    40    35    36    1
@<TRIPOS>MOLECULE
*****
 36 40 0 0 0
SMALL
GASTEIGER

@<TRIPOS>ATOM
      1 C         140.4329  140.0675  159.6547 C.ar    1  UNL1        0.1074
      2 C         139.0847  140.5114  160.1397 C.ar    1  UNL1        0.0588
      3 S         139.2933  141.5294  161.2214 S.2     1  UNL1       -0.0508
      4 C         140.7704  141.7147  161.4049 C.ar    1  UNL1        0.1646
      5 N         141.4747  140.8111  160.4366 N.ar    1  UNL1       -0.2224
      6 C         139.8089  137.4612  156.7275 C.ar    1  UNL1        0.2416
      7 N         139.5482  138.4714  157.8053 N.ar    1  UNL1       -0.2089
      8 C         140.6935  139.0573  158.5769 C.ar    1  UNL1        0.1026
      9 C         142.0992  138.6330  158.2707 C.ar    1  UNL1        0.0224
     10 C         142.3598  137.6227  157.1929 C.ar    1  UNL1        0.0239
     11 C         141.2146  137.0369  156.4213 C.ar    1  UNL1        0.1189
     12 N         141.4752  136.0267  155.3436 N.ar    1  UNL1       -0.2826
     13 C         141.5385  136.3050  153.8709 C.ar    1  UNL1        0.1826
     14 N         141.8207  135.0112  153.1664 N.ar    1  UNL1       -0.2280
     15 C         141.9317  133.9331  154.2036 C.ar    1  UNL1        0.0786
     16 C         142.2077  132.4823  153.9413 C.3     1  UNL1        0.0538
     17 C         141.7181  134.5609  155.5492 C.ar    1  UNL1        0.0963
     18 C         138.2014  137.5291  154.6875 C.3     1  UNL1        0.2543
     19 O         138.6637  136.8754  155.9560 O.3     1  UNL1       -0.4551
     20 N         141.4279  142.6409  162.3847 N.pl3   1  UNL1       -0.2786
     21 H         141.9619  143.4018  162.0607 H       1  UNL1        0.1555
     22 C         141.2718  142.4076  163.8582 C.ar    1  UNL1        0.1276
     23 C         141.8353  141.2531  164.6327 C.ar    1  UNL1        0.0244
     24 C         141.4365  141.4198  166.0690 C.ar    1  UNL1        0.0773
     25 N         140.6266  142.6772  166.1823 N.ar    1  UNL1       -0.1728
     26 N         140.5247  143.2877  164.8160 N.ar    1  UNL1       -0.2359
     27 C         141.8624  140.4050  167.0883 C.3     1  UNL1        0.0474
     28 C         142.6871  139.2236  166.6711 C.3     1  UNL1        0.0067
     29 C         143.0859  139.0569  165.2347 C.3     1  UNL1        0.0052
     30 C         142.6600  140.0717  164.2155 C.3     1  UNL1        0.0305
     31 C         139.8027  144.5557  164.4684 C.3     1  UNL1        0.1555
     32 C         138.6525  144.5242  163.5061 C.3     1  UNL1        0.1110
     33 C         137.8700  143.6814  164.4692 C.3     1  UNL1        0.0314
     34 C         139.4349  145.3669  162.5431 C.3     1  UNL1        0.0314
     35 O         137.5021  144.4926  162.5439 O.3     1  UNL1       -0.3848
     36 H         136.7771  143.9720  162.9237 H       1  UNL1        0.2103
@<TRIPOS>BOND
     1    18    19    1
     2    19     6    1
     3     6     7   ar
     4     7     8   ar
     5     8     1    1
     6     1     2   ar
     7     2     3   ar
     8     3     4   ar
     9     4    20    1
    10    20    22    1
    11    22    23   ar
    12    23    24   ar
    13    24    25   ar
    14    25    26   ar
    15    26    31    1
    16    31    32    1
    17    32    33    1
    18    32    34    1
    19    32    35    1
    20    24    27    1
    21    27    28    1
    22    28    29    1
    23    29    30    1
    24     4     5   ar
    25     8     9   ar
    26     9    10   ar
    27    10    11   ar
    28    11    12    1
    29    12    13   ar
    30    13    14   ar
    31    14    15   ar
    32    15    16    1
    33    15    17   ar
    34    11     6   ar
    35    17    12   ar
    36     5     1   ar
    37    26    22   ar
    38    30    23    1
    39    20    21    1
    40    35    36    1
@<TRIPOS>MOLECULE
*****
 36 40 0 0 0
SMALL
GASTEIGER

@<TRIPOS>ATOM
      1 C         142.6488  139.8908  160.0756 C.ar    1  UNL1        0.1074
      2 C         141.5986  138.8358  159.8908 C.ar    1  UNL1        0.0588
      3 S         140.9267  138.6140  161.2134 S.2     1  UNL1       -0.0508
      4 C         141.5616  139.5319  162.2156 C.ar    1  UNL1        0.1646
      5 N         142.6259  140.3210  161.5123 N.ar    1  UNL1       -0.2224
      6 C         144.8911  140.0715  156.8061 C.ar    1  UNL1        0.2416
      7 N         143.9783  139.5400  157.8711 N.ar    1  UNL1       -0.2089
      8 C         143.5616  140.4222  159.0105 C.ar    1  UNL1        0.1026
      9 C         144.0576  141.8359  159.0848 C.ar    1  UNL1        0.0224
     10 C         144.9704  142.3673  158.0196 C.ar    1  UNL1        0.0239
     11 C         145.3872  141.4851  156.8803 C.ar    1  UNL1        0.1189
     12 N         146.2999  142.0166  155.8153 N.ar    1  UNL1       -0.2826
     13 C         145.9176  142.9685  154.7208 C.ar    1  UNL1        0.1826
     14 N         147.1366  143.2297  153.8868 N.ar    1  UNL1       -0.2280
     15 C         148.2725  142.4391  154.4658 C.ar    1  UNL1        0.0786
     16 C         149.6785  142.4045  153.9443 C.3     1  UNL1        0.0538
     17 C         147.7553  141.6894  155.6576 C.ar    1  UNL1        0.0963
     18 C         144.4430  138.0341  155.2575 C.3     1  UNL1        0.2543
     19 O         145.3078  139.1893  155.6668 O.3     1  UNL1       -0.4551
     20 N         141.1963  139.6415  163.6664 N.pl3   1  UNL1       -0.2786
     21 H         141.0065  138.8290  164.1889 H       1  UNL1        0.1555
     22 C         141.1203  140.9890  164.3209 C.ar    1  UNL1        0.1276
     23 C         139.9418  141.9166  164.2949 C.ar    1  UNL1        0.0244
     24 C         140.3026  143.1464  165.0743 C.ar    1  UNL1        0.0773
     25 N         141.7041  142.9788  165.5820 N.ar    1  UNL1       -0.1728
     26 N         142.2095  141.6455  165.1164 N.ar    1  UNL1       -0.2359
     27 C         139.3083  144.2598  165.2210 C.3     1  UNL1        0.0474
     28 C         137.9533  144.1435  164.5883 C.3     1  UNL1        0.0067
     29 C         137.5925  142.9137  163.8089 C.3     1  UNL1        0.0052
     30 C         138.5868  141.8002  163.6622 C.3     1  UNL1        0.0305
     31 C         143.5659  141.0698  165.3970 C.3     1  UNL1        0.1555
     32 C         144.4928  140.7468  164.2628 C.3     1  UNL1        0.1110
     33 C         144.4893  139.3035  164.6709 C.3     1  UNL1        0.0314
     34 C         144.4963  142.1902  163.8547 C.3     1  UNL1        0.0314
     35 O         145.4198  140.4238  163.1286 O.3     1  UNL1       -0.3848
     36 H         145.6175  139.4742  163.1329 H       1  UNL1        0.2103
@<TRIPOS>BOND
     1    18    19    1
     2    19     6    1
     3     6     7   ar
     4     7     8   ar
     5     8     1    1
     6     1     2   ar
     7     2     3   ar
     8     3     4   ar
     9     4    20    1
    10    20    22    1
    11    22    23   ar
    12    23    24   ar
    13    24    25   ar
    14    25    26   ar
    15    26    31    1
    16    31    32    1
    17    32    33    1
    18    32    34    1
    19    32    35    1
    20    24    27    1
    21    27    28    1
    22    28    29    1
    23    29    30    1
    24     4     5   ar
    25     8     9   ar
    26     9    10   ar
    27    10    11   ar
    28    11    12    1
    29    12    13   ar
    30    13    14   ar
    31    14    15   ar
    32    15    16    1
    33    15    17   ar
    34    11     6   ar
    35    17    12   ar
    36     5     1   ar
    37    26    22   ar
    38    30    23    1
    39    20    21    1
    40    35    36    1
@<TRIPOS>MOLECULE
*****
 36 40 0 0 0
SMALL
GASTEIGER

@<TRIPOS>ATOM
      1 C         142.1706  141.9865  158.3019 C.ar    1  UNL1        0.1074
      2 C         142.3054  143.1568  157.3734 C.ar    1  UNL1        0.0588
      3 S         142.2128  144.4106  158.1915 S.2     1  UNL1       -0.0508
      4 C         142.0207  144.0152  159.6256 C.ar    1  UNL1        0.1646
      5 N         141.9947  142.5170  159.6939 N.ar    1  UNL1       -0.2224
      6 C         143.3449  138.5808  156.6367 C.ar    1  UNL1        0.2416
      7 N         143.3099  140.0277  157.0309 N.ar    1  UNL1       -0.2089
      8 C         142.2057  140.5397  157.9077 C.ar    1  UNL1        0.1026
      9 C         141.1365  139.6048  158.3902 C.ar    1  UNL1        0.0224
     10 C         141.1716  138.1579  157.9959 C.ar    1  UNL1        0.0239
     11 C         142.2758  137.6460  157.1192 C.ar    1  UNL1        0.1189
     12 N         142.3108  136.1991  156.7249 N.ar    1  UNL1       -0.2826
     13 C         143.1536  135.1326  157.3593 C.ar    1  UNL1        0.1826
     14 N         142.8729  133.8391  156.6536 N.ar    1  UNL1       -0.2280
     15 C         141.8566  134.1062  155.5830 C.ar    1  UNL1        0.0786
     16 C         141.2877  133.0926  154.6348 C.3     1  UNL1        0.0538
     17 C         141.5093  135.5648  155.6271 C.ar    1  UNL1        0.0963
     18 C         145.0562  138.9628  154.7195 C.3     1  UNL1        0.2543
     19 O         144.4491  138.0690  155.7600 O.3     1  UNL1       -0.4551
     20 N         141.8795  144.9534  160.7876 N.pl3   1  UNL1       -0.2786
     21 H         141.9487  145.9253  160.6468 H       1  UNL1        0.1555
     22 C         141.6328  144.4106  162.1640 C.ar    1  UNL1        0.1276
     23 C         140.2926  144.2271  162.8123 C.ar    1  UNL1        0.0244
     24 C         140.5144  143.6592  164.1827 C.ar    1  UNL1        0.0773
     25 N         141.9917  143.4916  164.3814 N.ar    1  UNL1       -0.1728
     26 N         142.6829  143.9560  163.1338 N.ar    1  UNL1       -0.2359
     27 C         139.3426  143.3679  165.0726 C.3     1  UNL1        0.0474
     28 C         137.9489  143.6447  164.5920 C.3     1  UNL1        0.0067
     29 C         137.7271  144.2126  163.2216 C.3     1  UNL1        0.0052
     30 C         138.8989  144.5039  162.3317 C.3     1  UNL1        0.0305
     31 C         144.1642  143.9644  162.8975 C.3     1  UNL1        0.1555
     32 C         144.9347  142.6777  162.9210 C.3     1  UNL1        0.1110
     33 C         145.0208  142.7566  164.4164 C.3     1  UNL1        0.0314
     34 C         144.8486  142.5988  161.4256 C.3     1  UNL1        0.0314
     35 O         145.7053  141.3909  162.9446 O.3     1  UNL1       -0.3848
     36 H         145.9239  141.1616  163.8614 H       1  UNL1        0.2103
@<TRIPOS>BOND
     1    18    19    1
     2    19     6    1
     3     6     7   ar
     4     7     8   ar
     5     8     1    1
     6     1     2   ar
     7     2     3   ar
     8     3     4   ar
     9     4    20    1
    10    20    22    1
    11    22    23   ar
    12    23    24   ar
    13    24    25   ar
    14    25    26   ar
    15    26    31    1
    16    31    32    1
    17    32    33    1
    18    32    34    1
    19    32    35    1
    20    24    27    1
    21    27    28    1
    22    28    29    1
    23    29    30    1
    24     4     5   ar
    25     8     9   ar
    26     9    10   ar
    27    10    11   ar
    28    11    12    1
    29    12    13   ar
    30    13    14   ar
    31    14    15   ar
    32    15    16    1
    33    15    17   ar
    34    11     6   ar
    35    17    12   ar
    36     5     1   ar
    37    26    22   ar
    38    30    23    1
    39    20    21    1
    40    35    36    1
@<TRIPOS>MOLECULE
*****
 36 40 0 0 0
SMALL
GASTEIGER

@<TRIPOS>ATOM
      1 C         139.9309  140.2661  159.1170 C.ar    1  UNL1        0.1074
      2 C         138.6367  141.0225  159.1704 C.ar    1  UNL1        0.0588
      3 S         138.7165  141.9978  160.3072 S.2     1  UNL1       -0.0508
      4 C         140.0600  141.8442  160.9564 C.ar    1  UNL1        0.1646
      5 N         140.8105  140.7739  160.2208 N.ar    1  UNL1       -0.2224
      6 C         139.5614  137.4725  156.3224 C.ar    1  UNL1        0.2416
      7 N         139.2087  138.5480  157.3068 N.ar    1  UNL1       -0.2089
      8 C         140.2835  139.1906  158.1327 C.ar    1  UNL1        0.1026
      9 C         141.7109  138.7577  157.9741 C.ar    1  UNL1        0.0224
     10 C         142.0635  137.6821  156.9897 C.ar    1  UNL1        0.0239
     11 C         140.9887  137.0396  156.1639 C.ar    1  UNL1        0.1189
     12 N         141.3413  135.9641  155.1795 N.ar    1  UNL1       -0.2826
     13 C         141.3680  136.1094  153.6867 C.ar    1  UNL1        0.1826
     14 N         141.7723  134.7897  153.0997 N.ar    1  UNL1       -0.2280
     15 C         141.9956  133.8286  154.2296 C.ar    1  UNL1        0.0786
     16 C         142.4121  132.3937  154.0973 C.3     1  UNL1        0.0538
     17 C         141.7292  134.5546  155.5150 C.ar    1  UNL1        0.0963
     18 C         137.9069  137.5594  154.3211 C.3     1  UNL1        0.2543
     19 O         138.4866  136.8299  155.4966 O.3     1  UNL1       -0.4551
     20 N         140.5644  142.6240  162.1344 N.pl3   1  UNL1       -0.2786
     21 H         140.5527  143.6082  162.1147 H       1  UNL1        0.1555
     22 C         141.0867  141.9041  163.3423 C.ar    1  UNL1        0.1276
     23 C         142.4355  141.2605  163.4704 C.ar    1  UNL1        0.0244
     24 C         142.5343  140.6601  164.8414 C.ar    1  UNL1        0.0773
     25 N         141.2464  140.9326  165.5606 N.ar    1  UNL1       -0.1728
     26 N         140.3517  141.7014  164.6341 N.ar    1  UNL1       -0.2359
     27 C         143.7841  139.9428  165.2579 C.3     1  UNL1        0.0474
     28 C         144.9351  139.8260  164.3032 C.3     1  UNL1        0.0067
     29 C         144.8364  140.4264  162.9322 C.3     1  UNL1        0.0052
     30 C         143.5866  141.1437  162.5158 C.3     1  UNL1        0.0305
     31 C         138.9655  142.1830  164.9449 C.3     1  UNL1        0.1555
     32 C         137.8172  141.7792  164.0684 C.3     1  UNL1        0.1110
     33 C         137.5353  143.2225  163.7728 C.3     1  UNL1        0.0314
     34 C         138.0991  140.3359  164.3640 C.3     1  UNL1        0.0314
     35 O         136.6688  141.3755  163.1919 O.3     1  UNL1       -0.3848
     36 H         136.2494  142.1684  162.8228 H       1  UNL1        0.2103
@<TRIPOS>BOND
     1    18    19    1
     2    19     6    1
     3     6     7   ar
     4     7     8   ar
     5     8     1    1
     6     1     2   ar
     7     2     3   ar
     8     3     4   ar
     9     4    20    1
    10    20    22    1
    11    22    23   ar
    12    23    24   ar
    13    24    25   ar
    14    25    26   ar
    15    26    31    1
    16    31    32    1
    17    32    33    1
    18    32    34    1
    19    32    35    1
    20    24    27    1
    21    27    28    1
    22    28    29    1
    23    29    30    1
    24     4     5   ar
    25     8     9   ar
    26     9    10   ar
    27    10    11   ar
    28    11    12    1
    29    12    13   ar
    30    13    14   ar
    31    14    15   ar
    32    15    16    1
    33    15    17   ar
    34    11     6   ar
    35    17    12   ar
    36     5     1   ar
    37    26    22   ar
    38    30    23    1
    39    20    21    1
    40    35    36    1
@<TRIPOS>MOLECULE
*****
 36 40 0 0 0
SMALL
GASTEIGER

@<TRIPOS>ATOM
      1 C         143.9449  140.6389  162.3067 C.ar    1  UNL1        0.1074
      2 C         145.2430  141.3771  162.4478 C.ar    1  UNL1        0.0588
      3 S         145.2147  142.1194  163.7510 S.2     1  UNL1       -0.0508
      4 C         143.8992  141.8399  164.4152 C.ar    1  UNL1        0.1646
      5 N         143.1144  140.9248  163.5225 N.ar    1  UNL1       -0.2224
      6 C         143.2260  139.4264  158.5967 C.ar    1  UNL1        0.2416
      7 N         143.6238  140.2978  159.7511 N.ar    1  UNL1       -0.2089
      8 C         143.5472  139.7676  161.1523 C.ar    1  UNL1        0.1026
      9 C         143.0729  138.3661  161.3989 C.ar    1  UNL1        0.0224
     10 C         142.6751  137.4948  160.2444 C.ar    1  UNL1        0.0239
     11 C         142.7517  138.0250  158.8434 C.ar    1  UNL1        0.1189
     12 N         142.3540  137.1537  157.6890 N.ar    1  UNL1       -0.2826
     13 C         141.1105  137.2984  156.8625 C.ar    1  UNL1        0.1826
     14 N         141.1179  136.2189  155.8211 N.ar    1  UNL1       -0.2280
     15 C         142.3660  135.4070  156.0039 C.ar    1  UNL1        0.0786
     16 C         142.7777  134.2249  155.1774 C.3     1  UNL1        0.0538
     17 C         143.1299  135.9848  157.1583 C.ar    1  UNL1        0.0963
     18 C         142.3635  141.0384  156.7508 C.3     1  UNL1        0.2543
     19 O         143.3026  139.9566  157.1957 O.3     1  UNL1       -0.4551
     20 N         143.4476  142.3805  165.7396 N.pl3   1  UNL1       -0.2786
     21 H         144.0821  142.4375  166.4902 H       1  UNL1        0.1555
     22 C         142.0293  142.8342  165.9203 C.ar    1  UNL1        0.1276
     23 C         141.1954  143.5491  164.8989 C.ar    1  UNL1        0.0244
     24 C         139.8467  143.8094  165.5015 C.ar    1  UNL1        0.0773
     25 N         139.8470  143.2552  166.8953 N.ar    1  UNL1       -0.1728
     26 N         141.1960  142.6525  167.1542 N.ar    1  UNL1       -0.2359
     27 C         138.7925  144.5173  164.7031 C.3     1  UNL1        0.0474
     28 C         139.0870  144.9650  163.3021 C.3     1  UNL1        0.0067
     29 C         140.4358  144.7048  162.6995 C.3     1  UNL1        0.0052
     30 C         141.4900  143.9969  163.4979 C.3     1  UNL1        0.0305
     31 C         141.6346  141.9853  168.4241 C.3     1  UNL1        0.1555
     32 C         142.2040  142.8047  169.5439 C.3     1  UNL1        0.1110
     33 C         140.8407  143.3609  169.8302 C.3     1  UNL1        0.0314
     34 C         143.5674  142.2486  169.2576 C.3     1  UNL1        0.0314
     35 O         142.7735  143.6243  170.6639 O.3     1  UNL1       -0.3848
     36 H         142.0650  144.1400  171.0798 H       1  UNL1        0.2103
@<TRIPOS>BOND
     1    18    19    1
     2    19     6    1
     3     6     7   ar
     4     7     8   ar
     5     8     1    1
     6     1     2   ar
     7     2     3   ar
     8     3     4   ar
     9     4    20    1
    10    20    22    1
    11    22    23   ar
    12    23    24   ar
    13    24    25   ar
    14    25    26   ar
    15    26    31    1
    16    31    32    1
    17    32    33    1
    18    32    34    1
    19    32    35    1
    20    24    27    1
    21    27    28    1
    22    28    29    1
    23    29    30    1
    24     4     5   ar
    25     8     9   ar
    26     9    10   ar
    27    10    11   ar
    28    11    12    1
    29    12    13   ar
    30    13    14   ar
    31    14    15   ar
    32    15    16    1
    33    15    17   ar
    34    11     6   ar
    35    17    12   ar
    36     5     1   ar
    37    26    22   ar
    38    30    23    1
    39    20    21    1
    40    35    36    1
