@<TRIPOS>MOLECULE
*****
 21 22 0 0 0
SMALL
GASTEIGER

@<TRIPOS>ATOM
      1 C         139.7310  139.6261  166.1376 C.3     1  UNL1        0.0947
      2 C         139.7810  139.8707  167.6167 C.3     1  UNL1        0.0154
      3 C         138.6241  139.1269  167.0181 C.3     1  UNL1        0.0287
      4 C         139.2371  139.1508  164.8034 C.ar    1  UNL1        0.0149
      5 C         139.4546  137.7872  164.2174 C.ar    1  UNL1        0.0031
      6 C         138.7908  137.7494  162.8728 C.ar    1  UNL1        0.0072
      7 C         138.1630  139.0895  162.6278 C.ar    1  UNL1        0.0351
      8 S         138.4388  139.9556  163.8210 S.2     1  UNL1       -0.0903
      9 C         137.3170  138.4093  167.1809 C.3     1  UNL1        0.0659
     10 N         137.2813  136.9097  167.1944 N.3     1  UNL1       -0.3211
     11 H         137.5581  136.5548  166.2791 H       1  UNL1        0.1189
     12 H         136.3356  136.5941  167.4097 H       1  UNL1        0.1189
     13 N         141.0826  141.7858  165.6290 N.am    1  UNL1       -0.2711
     14 C         141.0096  140.2904  165.7204 C.2     1  UNL1        0.2295
     15 O         142.2151  139.4592  165.3947 O.2     1  UNL1       -0.2745
     16 C         142.3613  142.4501  165.2118 C.3     1  UNL1        0.1202
     17 C         143.2420  142.3755  167.6549 C.2     1  UNL1       -0.0031
     18 C         143.4898  142.5860  166.1906 C.2     1  UNL1       -0.0047
     19 C         139.8772  142.6170  165.9546 C.3     1  UNL1        0.1202
     20 C         139.3089  143.5494  164.9262 C.2     1  UNL1       -0.0047
     21 C         138.7020  144.8538  165.3503 C.2     1  UNL1       -0.0031
@<TRIPOS>BOND
     1    17    18    2
     2    18    16    1
     3    16    13    1
     4    13    19    1
     5    19    20    1
     6    20    21    2
     7    13    14   am
     8    14    15    2
     9     1    14    1
    10     1     4    1
    11     4     5   ar
    12     5     6   ar
    13     6     7   ar
    14     7     8   ar
    15     1     2    1
    16     2     3    1
    17     3     9    1
    18     9    10    1
    19     3     1    1
    20     8     4   ar
    21    10    11    1
    22    10    12    1
@<TRIPOS>MOLECULE
*****
 21 22 0 0 0
SMALL
GASTEIGER

@<TRIPOS>ATOM
      1 C         139.3088  139.7509  165.7436 C.3     1  UNL1        0.0947
      2 C         139.3707  139.8543  167.2388 C.3     1  UNL1        0.0154
      3 C         138.5017  138.8155  166.5943 C.3     1  UNL1        0.0287
      4 C         138.9196  139.2637  164.3793 C.ar    1  UNL1        0.0149
      5 C         138.0280  139.9798  163.4086 C.ar    1  UNL1        0.0031
      6 C         137.9111  139.1336  162.1756 C.ar    1  UNL1        0.0072
      7 C         138.7305  137.8946  162.3843 C.ar    1  UNL1        0.0351
      8 S         139.3538  137.9751  163.7463 S.2     1  UNL1       -0.0903
      9 C         137.5340  137.6756  166.7132 C.3     1  UNL1        0.0659
     10 N         136.5732  137.6244  167.8640 N.3     1  UNL1       -0.3211
     11 H         137.0910  137.5002  168.7339 H       1  UNL1        0.1189
     12 H         135.9308  136.8425  167.7360 H       1  UNL1        0.1189
     13 N         141.7105  140.5647  165.1786 N.am    1  UNL1       -0.2711
     14 C         140.2511  140.8555  165.3669 C.2     1  UNL1        0.2295
     15 O         139.7339  142.2508  165.1783 O.2     1  UNL1       -0.2745
     16 C         142.6528  141.6693  164.8018 C.3     1  UNL1        0.1202
     17 C         144.4363  143.4106  165.5345 C.2     1  UNL1       -0.0031
     18 C         143.2776  142.5187  165.8687 C.2     1  UNL1       -0.0047
     19 C         142.2278  139.1694  165.3671 C.3     1  UNL1        0.1202
     20 C         143.0883  138.8420  166.5513 C.2     1  UNL1       -0.0047
     21 C         142.7632  139.4189  167.8971 C.2     1  UNL1       -0.0031
@<TRIPOS>BOND
     1    17    18    2
     2    18    16    1
     3    16    13    1
     4    13    19    1
     5    19    20    1
     6    20    21    2
     7    13    14   am
     8    14    15    2
     9     1    14    1
    10     1     4    1
    11     4     5   ar
    12     5     6   ar
    13     6     7   ar
    14     7     8   ar
    15     1     2    1
    16     2     3    1
    17     3     9    1
    18     9    10    1
    19     3     1    1
    20     8     4   ar
    21    10    11    1
    22    10    12    1
@<TRIPOS>MOLECULE
*****
 21 22 0 0 0
SMALL
GASTEIGER

@<TRIPOS>ATOM
      1 C         140.6441  140.9839  167.6853 C.3     1  UNL1        0.0947
      2 C         139.5865  140.0844  167.1174 C.3     1  UNL1        0.0154
      3 C         139.5944  140.4000  168.5838 C.3     1  UNL1        0.0287
      4 C         141.4322  141.7761  168.6859 C.ar    1  UNL1        0.0149
      5 C         140.9832  143.0372  169.3628 C.ar    1  UNL1        0.0031
      6 C         142.0812  143.4868  170.2805 C.ar    1  UNL1        0.0072
      7 C         143.2088  142.5037  170.1708 C.ar    1  UNL1        0.0351
      8 S         142.8077  141.4464  169.1852 S.2     1  UNL1       -0.0903
      9 C         138.9930  140.2452  169.9492 C.3     1  UNL1        0.0659
     10 N         139.7732  139.5746  171.0407 N.3     1  UNL1       -0.3211
     11 H         139.9141  138.5925  170.8039 H       1  UNL1        0.1189
     12 H         139.2575  139.6422  171.9181 H       1  UNL1        0.1189
     13 N         141.0447  142.4746  165.5955 N.am    1  UNL1       -0.2711
     14 C         141.4200  141.2925  166.4392 C.2     1  UNL1        0.2295
     15 O         142.5712  140.4191  166.0369 O.2     1  UNL1       -0.2745
     16 C         141.8206  142.7832  164.3494 C.3     1  UNL1        0.1202
     17 C         142.8209  145.1095  163.7681 C.2     1  UNL1       -0.0031
     18 C         142.9618  143.7556  164.3981 C.2     1  UNL1       -0.0047
     19 C         139.8935  143.3480  165.9978 C.3     1  UNL1        0.1202
     20 C         139.3270  144.3381  165.0237 C.2     1  UNL1       -0.0047
     21 C         137.8658  144.3067  164.6867 C.2     1  UNL1       -0.0031
@<TRIPOS>BOND
     1    17    18    2
     2    18    16    1
     3    16    13    1
     4    13    19    1
     5    19    20    1
     6    20    21    2
     7    13    14   am
     8    14    15    2
     9     1    14    1
    10     1     4    1
    11     4     5   ar
    12     5     6   ar
    13     6     7   ar
    14     7     8   ar
    15     1     2    1
    16     2     3    1
    17     3     9    1
    18     9    10    1
    19     3     1    1
    20     8     4   ar
    21    10    11    1
    22    10    12    1
@<TRIPOS>MOLECULE
*****
 21 22 0 0 0
SMALL
GASTEIGER

@<TRIPOS>ATOM
      1 C         140.4089  141.1958  167.7296 C.3     1  UNL1        0.0947
      2 C         139.5585  140.1151  167.1306 C.3     1  UNL1        0.0154
      3 C         139.4887  140.3950  168.6026 C.3     1  UNL1        0.0287
      4 C         141.0125  142.1085  168.7556 C.ar    1  UNL1        0.0149
      5 C         140.3995  143.3728  169.2807 C.ar    1  UNL1        0.0031
      6 C         141.3433  143.9627  170.2863 C.ar    1  UNL1        0.0072
      7 C         142.5397  143.0631  170.3826 C.ar    1  UNL1        0.0351
      8 S         142.3353  141.9171  169.4366 S.2     1  UNL1       -0.0903
      9 C         138.9173  140.0943  169.9564 C.3     1  UNL1        0.0659
     10 N         139.8081  139.5836  171.0499 N.3     1  UNL1       -0.3211
     11 H         140.1546  138.6570  170.8013 H       1  UNL1        0.1189
     12 H         139.2794  139.5266  171.9204 H       1  UNL1        0.1189
     13 N         142.2777  140.9025  165.9488 N.am    1  UNL1       -0.2711
     14 C         141.1193  141.6797  166.5004 C.2     1  UNL1        0.2295
     15 O         140.6714  142.9407  165.8226 O.2     1  UNL1       -0.2745
     16 C         142.9882  141.3864  164.7195 C.3     1  UNL1        0.1202
     17 C         144.2471  143.6485  164.9373 C.2     1  UNL1       -0.0031
     18 C         144.2720  142.1515  164.8475 C.2     1  UNL1       -0.0047
     19 C         142.7257  139.6415  166.6265 C.3     1  UNL1        0.1202
     20 C         142.9357  138.3922  165.8233 C.2     1  UNL1       -0.0047
     21 C         141.8151  137.8347  164.9968 C.2     1  UNL1       -0.0031
@<TRIPOS>BOND
     1    17    18    2
     2    18    16    1
     3    16    13    1
     4    13    19    1
     5    19    20    1
     6    20    21    2
     7    13    14   am
     8    14    15    2
     9     1    14    1
    10     1     4    1
    11     4     5   ar
    12     5     6   ar
    13     6     7   ar
    14     7     8   ar
    15     1     2    1
    16     2     3    1
    17     3     9    1
    18     9    10    1
    19     3     1    1
    20     8     4   ar
    21    10    11    1
    22    10    12    1
@<TRIPOS>MOLECULE
*****
 21 22 0 0 0
SMALL
GASTEIGER

@<TRIPOS>ATOM
      1 C         142.4094  141.2620  165.8734 C.3     1  UNL1        0.0947
      2 C         143.2841  142.4257  166.2350 C.3     1  UNL1        0.0154
      3 C         143.7518  141.4218  165.2235 C.3     1  UNL1        0.0287
      4 C         141.9449  140.0018  165.2055 C.ar    1  UNL1        0.0149
      5 C         142.2374  138.6030  165.6612 C.ar    1  UNL1        0.0031
      6 C         141.5797  137.6559  164.7019 C.ar    1  UNL1        0.0072
      7 C         140.8806  138.4694  163.6533 C.ar    1  UNL1        0.0351
      8 S         141.1063  139.9192  163.9645 S.2     1  UNL1       -0.0903
      9 C         144.7968  140.9344  164.2642 C.3     1  UNL1        0.0659
     10 N         145.9601  141.8135  163.9121 N.3     1  UNL1       -0.3211
     11 H         145.6264  142.6303  163.4004 H       1  UNL1        0.1189
     12 H         146.6162  141.2925  163.3302 H       1  UNL1        0.1189
     13 N         141.2345  141.0815  168.1836 N.am    1  UNL1       -0.2711
     14 C         141.2283  141.5400  166.7554 C.2     1  UNL1        0.2295
     15 O         140.0411  142.2763  166.2091 O.2     1  UNL1       -0.2745
     16 C         140.0533  141.3595  169.0655 C.3     1  UNL1        0.1202
     17 C         140.4083  143.8604  169.6734 C.2     1  UNL1       -0.0031
     18 C         140.1254  142.4487  170.0943 C.2     1  UNL1       -0.0047
     19 C         142.4216  140.3453  168.7299 C.3     1  UNL1        0.1202
     20 C         143.1973  140.9197  169.8781 C.2     1  UNL1       -0.0047
     21 C         143.7983  142.2894  169.7666 C.2     1  UNL1       -0.0031
@<TRIPOS>BOND
     1    17    18    2
     2    18    16    1
     3    16    13    1
     4    13    19    1
     5    19    20    1
     6    20    21    2
     7    13    14   am
     8    14    15    2
     9     1    14    1
    10     1     4    1
    11     4     5   ar
    12     5     6   ar
    13     6     7   ar
    14     7     8   ar
    15     1     2    1
    16     2     3    1
    17     3     9    1
    18     9    10    1
    19     3     1    1
    20     8     4   ar
    21    10    11    1
    22    10    12    1
@<TRIPOS>MOLECULE
*****
 21 22 0 0 0
SMALL
GASTEIGER

@<TRIPOS>ATOM
      1 C         141.4141  142.6327  164.8841 C.3     1  UNL1        0.0947
      2 C         142.8992  142.5648  165.0836 C.3     1  UNL1        0.0154
      3 C         142.2897  143.7424  164.3824 C.3     1  UNL1        0.0287
      4 C         140.0711  143.1482  164.4592 C.ar    1  UNL1        0.0149
      5 C         139.1827  144.0566  165.2565 C.ar    1  UNL1        0.0031
      6 C         137.9433  144.3156  164.4523 C.ar    1  UNL1        0.0072
      7 C         138.0656  143.5673  163.1580 C.ar    1  UNL1        0.0351
      8 S         139.3807  142.8458  163.1623 S.2     1  UNL1       -0.0903
      9 C         142.4434  145.0631  163.6880 C.3     1  UNL1        0.0659
     10 N         143.6610  145.3354  162.8554 N.3     1  UNL1       -0.3211
     11 H         144.4848  145.3617  163.4562 H       1  UNL1        0.1189
     12 H         143.5560  146.2333  162.3829 H       1  UNL1        0.1189
     13 N         140.7215  141.3028  167.0058 N.am    1  UNL1       -0.2711
     14 C         141.0049  141.3439  165.5334 C.2     1  UNL1        0.2295
     15 O         140.8791  140.0963  164.7103 O.2     1  UNL1       -0.2745
     16 C         140.3123  140.0140  167.6551 C.3     1  UNL1        0.1202
     17 C         138.1606  138.8830  166.7382 C.2     1  UNL1       -0.0031
     18 C         138.8580  139.6771  167.8025 C.2     1  UNL1       -0.0047
     19 C         140.8473  142.5504  167.8290 C.3     1  UNL1        0.1202
     20 C         141.7544  142.5727  169.0234 C.2     1  UNL1       -0.0047
     21 C         143.2148  142.2711  168.8618 C.2     1  UNL1       -0.0031
@<TRIPOS>BOND
     1    17    18    2
     2    18    16    1
     3    16    13    1
     4    13    19    1
     5    19    20    1
     6    20    21    2
     7    13    14   am
     8    14    15    2
     9     1    14    1
    10     1     4    1
    11     4     5   ar
    12     5     6   ar
    13     6     7   ar
    14     7     8   ar
    15     1     2    1
    16     2     3    1
    17     3     9    1
    18     9    10    1
    19     3     1    1
    20     8     4   ar
    21    10    11    1
    22    10    12    1
@<TRIPOS>MOLECULE
*****
 21 22 0 0 0
SMALL
GASTEIGER

@<TRIPOS>ATOM
      1 C         142.1039  140.2524  167.6625 C.3     1  UNL1        0.0947
      2 C         142.9013  139.0677  167.2037 C.3     1  UNL1        0.0154
      3 C         142.6042  139.2523  168.6623 C.3     1  UNL1        0.0287
      4 C         141.3947  141.2047  168.5792 C.ar    1  UNL1        0.0149
      5 C         139.9877  141.0639  169.0797 C.ar    1  UNL1        0.0031
      6 C         139.6916  142.2371  169.9661 C.ar    1  UNL1        0.0072
      7 C         140.9155  143.1030  170.0135 C.ar    1  UNL1        0.0351
      8 S         141.9681  142.4649  169.1563 S.2     1  UNL1       -0.0903
      9 C         142.7215  138.7815  170.0816 C.3     1  UNL1        0.0659
     10 N         143.5127  139.5811  171.0741 N.3     1  UNL1       -0.3211
     11 H         144.4977  139.5727  170.8095 H       1  UNL1        0.1189
     12 H         143.4064  139.1719  172.0023 H       1  UNL1        0.1189
     13 N         140.7433  140.4344  165.4568 N.am    1  UNL1       -0.2711
     14 C         141.8499  140.9218  166.3444 C.2     1  UNL1        0.2295
     15 O         142.7025  142.0785  165.9140 O.2     1  UNL1       -0.2745
     16 C         140.4893  141.1038  164.1386 C.3     1  UNL1        0.1202
     17 C         138.7838  142.9131  164.8918 C.2     1  UNL1       -0.0031
     18 C         139.9950  142.5195  164.0994 C.2     1  UNL1       -0.0047
     19 C         139.8908  139.2778  165.8871 C.3     1  UNL1        0.1202
     20 C         138.4204  139.4722  166.1112 C.2     1  UNL1       -0.0047
     21 C         137.6666  138.5303  167.0024 C.2     1  UNL1       -0.0031
@<TRIPOS>BOND
     1    17    18    2
     2    18    16    1
     3    16    13    1
     4    13    19    1
     5    19    20    1
     6    20    21    2
     7    13    14   am
     8    14    15    2
     9     1    14    1
    10     1     4    1
    11     4     5   ar
    12     5     6   ar
    13     6     7   ar
    14     7     8   ar
    15     1     2    1
    16     2     3    1
    17     3     9    1
    18     9    10    1
    19     3     1    1
    20     8     4   ar
    21    10    11    1
    22    10    12    1
@<TRIPOS>MOLECULE
*****
 21 22 0 0 0
SMALL
GASTEIGER

@<TRIPOS>ATOM
      1 C         142.5535  138.7609  164.9557 C.3     1  UNL1        0.0947
      2 C         141.5966  137.6108  164.8480 C.3     1  UNL1        0.0154
      3 C         142.2251  138.1817  163.6116 C.3     1  UNL1        0.0287
      4 C         143.5120  139.8400  164.5472 C.ar    1  UNL1        0.0149
      5 C         144.9921  139.6812  164.3629 C.ar    1  UNL1        0.0031
      6 C         145.5534  141.0105  163.9531 C.ar    1  UNL1        0.0072
      7 C         144.4202  141.9909  163.8841 C.ar    1  UNL1        0.0351
      8 S         143.1585  141.2675  164.2513 S.2     1  UNL1       -0.0903
      9 C         142.3984  138.1770  162.1216 C.3     1  UNL1        0.0659
     10 N         143.6097  137.5383  161.5094 N.3     1  UNL1       -0.3211
     11 H         144.4425  138.0633  161.7765 H       1  UNL1        0.1189
     12 H         143.5181  137.5397  160.4936 H       1  UNL1        0.1189
     13 N         141.4629  139.7763  167.0839 N.am    1  UNL1       -0.2711
     14 C         142.5491  138.9653  166.4417 C.2     1  UNL1        0.2295
     15 O         143.6308  138.3586  167.2854 O.2     1  UNL1       -0.2745
     16 C         141.4585  139.9806  168.5700 C.3     1  UNL1        0.1202
     17 C         139.2589  140.5837  169.8142 C.2     1  UNL1       -0.0031
     18 C         140.5523  141.0067  169.1832 C.2     1  UNL1       -0.0047
     19 C         140.3812  140.3830  166.2402 C.3     1  UNL1        0.1202
     20 C         139.0365  139.7236  166.1567 C.2     1  UNL1       -0.0047
     21 C         138.1425  139.9897  164.9821 C.2     1  UNL1       -0.0031
@<TRIPOS>BOND
     1    17    18    2
     2    18    16    1
     3    16    13    1
     4    13    19    1
     5    19    20    1
     6    20    21    2
     7    13    14   am
     8    14    15    2
     9     1    14    1
    10     1     4    1
    11     4     5   ar
    12     5     6   ar
    13     6     7   ar
    14     7     8   ar
    15     1     2    1
    16     2     3    1
    17     3     9    1
    18     9    10    1
    19     3     1    1
    20     8     4   ar
    21    10    11    1
    22    10    12    1
@<TRIPOS>MOLECULE
*****
 21 22 0 0 0
SMALL
GASTEIGER

@<TRIPOS>ATOM
      1 C         140.2580  140.1486  163.9424 C.3     1  UNL1        0.0947
      2 C         140.6505  141.0004  162.7719 C.3     1  UNL1        0.0154
      3 C         139.2351  140.5242  162.9117 C.3     1  UNL1        0.0287
      4 C         139.4077  139.3282  164.8665 C.ar    1  UNL1        0.0149
      5 C         139.1484  137.8553  164.7515 C.ar    1  UNL1        0.0031
      6 C         138.2478  137.4535  165.8818 C.ar    1  UNL1        0.0072
      7 C         137.9505  138.6782  166.6953 C.ar    1  UNL1        0.0351
      8 S         138.6674  139.8368  166.0679 S.2     1  UNL1       -0.0903
      9 C         137.8272  140.4660  162.3974 C.3     1  UNL1        0.0659
     10 N         136.7527  141.2765  163.0598 N.3     1  UNL1       -0.3211
     11 H         136.6024  140.9316  164.0079 H       1  UNL1        0.1189
     12 H         135.8870  141.1937  162.5267 H       1  UNL1        0.1189
     13 N         142.5472  138.9716  164.2952 N.am    1  UNL1       -0.2711
     14 C         141.5764  140.0579  164.6522 C.2     1  UNL1        0.2295
     15 O         141.9239  141.0535  165.7190 O.2     1  UNL1       -0.2745
     16 C         143.8655  138.8809  165.0050 C.3     1  UNL1        0.1202
     17 C         144.9522  140.6789  163.4766 C.2     1  UNL1       -0.0031
     18 C         145.0881  139.5037  164.3987 C.2     1  UNL1       -0.0047
     19 C         142.1997  137.9759  163.2285 C.3     1  UNL1        0.1202
     20 C         142.8288  138.0810  161.8708 C.2     1  UNL1       -0.0047
     21 C         141.9642  138.1929  160.6503 C.2     1  UNL1       -0.0031
@<TRIPOS>BOND
     1    17    18    2
     2    18    16    1
     3    16    13    1
     4    13    19    1
     5    19    20    1
     6    20    21    2
     7    13    14   am
     8    14    15    2
     9     1    14    1
    10     1     4    1
    11     4     5   ar
    12     5     6   ar
    13     6     7   ar
    14     7     8   ar
    15     1     2    1
    16     2     3    1
    17     3     9    1
    18     9    10    1
    19     3     1    1
    20     8     4   ar
    21    10    11    1
    22    10    12    1
