@<TRIPOS>MOLECULE
*****
 44 50 0 0 0
SMALL
GASTEIGER

@<TRIPOS>ATOM
      1 C         140.8555  141.3060  159.7536 C.3     1  UNL1        0.1205
      2 N         141.1754  140.2183  158.7716 N.3     1  UNL1       -0.2835
      3 C         142.4586  139.4511  158.8938 C.3     1  UNL1        0.1165
      4 C         143.4218  139.7717  159.9981 C.3     1  UNL1        0.0511
      5 C         143.1019  140.8594  160.9801 C.2     1  UNL1       -0.0038
      6 C         141.8188  141.6266  160.8579 C.2     1  UNL1        0.0753
      7 N         141.7756  142.6370  161.9657 N.2     1  UNL1       -0.2520
      8 C         143.0320  142.4943  162.7726 C.2     1  UNL1        0.0627
      9 C         143.5355  143.2228  163.9832 C.3     1  UNL1        0.0717
     10 C         144.8588  142.8526  164.5848 C.2     1  UNL1       -0.0198
     11 C         145.6785  141.7540  163.9756 C.2     1  UNL1       -0.0042
     12 C         145.1750  141.0255  162.7650 C.2     1  UNL1        0.0006
     13 C         143.8517  141.3957  162.1634 C.2     1  UNL1        0.0111
     14 H         141.1761  140.6477  157.8464 H       1  UNL1        0.1244
     15 C         138.2442  142.5632  157.0424 C.ar    1  UNL1        0.0945
     16 C         137.1903  141.5012  157.1501 C.ar    1  UNL1        0.1053
     17 N         137.3582  140.3741  158.1256 N.ar    1  UNL1       -0.2424
     18 C         138.5800  140.3091  158.9935 C.ar    1  UNL1        0.0965
     19 C         139.6338  141.3711  158.8858 C.ar    1  UNL1        0.0191
     20 C         139.4659  142.4981  157.9103 C.ar    1  UNL1        0.0072
     21 C         138.0763  143.6902  156.0669 C.2     1  UNL1        0.3427
     22 O         136.7087  144.0538  155.5692 O.2     1  UNL1       -0.2448
     23 O         139.2758  144.4535  155.5891 O.3     1  UNL1       -0.4454
     24 C         140.4024  146.1849  157.1649 C.3     1  UNL1        0.0513
     25 C         139.4816  145.8748  156.0221 C.3     1  UNL1        0.2089
     26 C         140.1113  142.4164  160.4343 C.ar    1  UNL1        0.0393
     27 C         140.2144  143.8767  160.1078 C.ar    1  UNL1        0.1193
     28 N         139.3002  144.6242  161.0328 N.ar    1  UNL1       -0.1679
     29 N         138.6321  143.6258  161.9309 N.ar    1  UNL1       -0.2476
     30 C         137.6374  143.9372  163.0096 C.3     1  UNL1        0.1537
     31 C         139.1335  142.2612  161.5611 C.ar    1  UNL1        0.0943
     32 C         142.7785  138.3632  157.9117 C.ar    1  UNL1        0.1318
     33 N         142.3406  136.9319  158.0080 N.ar    1  UNL1       -0.2298
     34 C         142.8839  136.1998  156.8169 C.ar    1  UNL1        0.0996
     35 C         143.6576  137.1788  155.9844 C.ar    1  UNL1        0.0927
     36 N         143.5925  138.5159  156.6611 N.ar    1  UNL1       -0.3386
     37 H         144.0105  139.3476  156.3407 H       1  UNL1        0.1672
     38 C         142.6879  134.7443  156.5117 C.ar    1  UNL1        0.0193
     39 C         143.4845  133.7094  157.2496 C.ar    1  UNL1        0.0039
     40 C         143.2886  132.2539  156.9445 C.ar    1  UNL1        0.0297
     41 C         142.2960  131.8333  155.9015 C.ar    1  UNL1        0.1401
     42 F         142.1000  130.3777  155.5963 F       1  UNL1       -0.2042
     43 C         141.4994  132.8682  155.1636 C.ar    1  UNL1        0.0297
     44 C         141.6953  134.3236  155.4687 C.ar    1  UNL1        0.0039
@<TRIPOS>BOND
     1    24    25    1
     2    25    23    1
     3    23    21    1
     4    21    22    2
     5    21    15    1
     6    15    16   ar
     7    16    17   ar
     8    17    18   ar
     9    18    19   ar
    10     1    19    1
    11     1    26    1
    12    26    27   ar
    13    27    28   ar
    14    28    29   ar
    15    29    30    1
    16    29    31   ar
    17     1     2    1
    18     2     3    1
    19     3    32    1
    20    32    33   ar
    21    33    34   ar
    22    34    38    1
    23    38    39   ar
    24    39    40   ar
    25    40    41   ar
    26    41    42    1
    27    41    43   ar
    28    43    44   ar
    29    34    35   ar
    30    35    36   ar
    31     3     4    1
    32     4     5    1
    33     5     6    2
    34     6     7    1
    35     7     8    2
    36     8     9    1
    37     9    10    1
    38    10    11    2
    39    11    12    1
    40    12    13    2
    41    19    20   ar
    42    20    15   ar
    43     6     1    1
    44    13     8    1
    45    31    26   ar
    46    36    32   ar
    47    13     5    1
    48    44    38   ar
    49     2    14    1
    50    36    37    1
@<TRIPOS>MOLECULE
*****
 44 50 0 0 0
SMALL
GASTEIGER

@<TRIPOS>ATOM
      1 C         142.2579  142.5915  159.8082 C.3     1  UNL1        0.1205
      2 N         141.7462  143.2928  158.5850 N.3     1  UNL1       -0.2835
      3 C         140.6349  144.2933  158.7039 C.3     1  UNL1        0.1165
      4 C         140.0354  144.5924  160.0459 C.3     1  UNL1        0.0511
      5 C         140.5471  143.8911  161.2691 C.2     1  UNL1       -0.0038
      6 C         141.6583  142.8906  161.1503 C.2     1  UNL1        0.0753
      7 N         141.9535  142.3606  162.5221 N.2     1  UNL1       -0.2520
      8 C         141.0246  143.0335  163.4888 C.2     1  UNL1        0.0627
      9 C         140.8580  142.9072  164.9741 C.3     1  UNL1        0.0717
     10 C         139.8222  143.7267  165.6850 C.2     1  UNL1       -0.0198
     11 C         138.9530  144.6726  164.9106 C.2     1  UNL1       -0.0042
     12 C         139.1196  144.7989  163.4253 C.2     1  UNL1        0.0006
     13 C         140.1554  143.9794  162.7144 C.2     1  UNL1        0.0111
     14 H         141.4229  142.5684  157.9439 H       1  UNL1        0.1244
     15 C         145.3264  142.0103  157.3594 C.ar    1  UNL1        0.0945
     16 C         144.9096  140.7400  156.6793 C.ar    1  UNL1        0.1053
     17 N         143.6090  140.0868  157.0421 N.ar    1  UNL1       -0.2424
     18 C         142.7250  140.7040  158.0852 C.ar    1  UNL1        0.0965
     19 C         143.1418  141.9743  158.7653 C.ar    1  UNL1        0.0191
     20 C         144.4425  142.6275  158.4024 C.ar    1  UNL1        0.0072
     21 C         146.6271  142.6635  156.9965 C.2     1  UNL1        0.3427
     22 O         147.5390  143.1690  158.0749 O.2     1  UNL1       -0.2448
     23 O         147.0157  142.8110  155.5554 O.3     1  UNL1       -0.4454
     24 C         149.3778  141.7299  155.5137 C.3     1  UNL1        0.0513
     25 C         147.9970  141.8568  154.9417 C.3     1  UNL1        0.2089
     26 C         143.0766  141.6758  160.6693 C.ar    1  UNL1        0.0393
     27 C         144.3916  142.0089  161.3092 C.ar    1  UNL1        0.1193
     28 N         144.8516  140.8052  162.0770 N.ar    1  UNL1       -0.1679
     29 N         143.8209  139.7282  161.9115 N.ar    1  UNL1       -0.2476
     30 C         143.8772  138.3542  162.5109 C.3     1  UNL1        0.1537
     31 C         142.7238  140.2662  161.0415 C.ar    1  UNL1        0.0943
     32 C         140.1232  144.9947  157.4806 C.ar    1  UNL1        0.1318
     33 N         140.2513  146.4598  157.1861 N.ar    1  UNL1       -0.2298
     34 C         139.6008  146.7247  155.8606 C.ar    1  UNL1        0.0996
     35 C         139.0707  145.4233  155.3361 C.ar    1  UNL1        0.0927
     36 N         139.3936  144.3540  156.3373 N.ar    1  UNL1       -0.3386
     37 H         139.1665  143.3993  156.2580 H       1  UNL1        0.1672
     38 C         139.4984  148.0572  155.1794 C.ar    1  UNL1        0.0193
     39 C         138.7768  149.1887  155.8495 C.ar    1  UNL1        0.0039
     40 C         138.6744  150.5211  155.1684 C.ar    1  UNL1        0.0297
     41 C         139.2935  150.7221  153.8170 C.ar    1  UNL1        0.1401
     42 F         139.1911  152.0546  153.1357 F       1  UNL1       -0.2042
     43 C         140.0151  149.5907  153.1468 C.ar    1  UNL1        0.0297
     44 C         140.1175  148.2582  153.8280 C.ar    1  UNL1        0.0039
@<TRIPOS>BOND
     1    24    25    1
     2    25    23    1
     3    23    21    1
     4    21    22    2
     5    21    15    1
     6    15    16   ar
     7    16    17   ar
     8    17    18   ar
     9    18    19   ar
    10     1    19    1
    11     1    26    1
    12    26    27   ar
    13    27    28   ar
    14    28    29   ar
    15    29    30    1
    16    29    31   ar
    17     1     2    1
    18     2     3    1
    19     3    32    1
    20    32    33   ar
    21    33    34   ar
    22    34    38    1
    23    38    39   ar
    24    39    40   ar
    25    40    41   ar
    26    41    42    1
    27    41    43   ar
    28    43    44   ar
    29    34    35   ar
    30    35    36   ar
    31     3     4    1
    32     4     5    1
    33     5     6    2
    34     6     7    1
    35     7     8    2
    36     8     9    1
    37     9    10    1
    38    10    11    2
    39    11    12    1
    40    12    13    2
    41    19    20   ar
    42    20    15   ar
    43     6     1    1
    44    13     8    1
    45    31    26   ar
    46    36    32   ar
    47    13     5    1
    48    44    38   ar
    49     2    14    1
    50    36    37    1
@<TRIPOS>MOLECULE
*****
 44 50 0 0 0
SMALL
GASTEIGER

@<TRIPOS>ATOM
      1 C         142.4701  140.0343  159.4564 C.3     1  UNL1        0.1205
      2 N         143.2163  140.4797  158.2338 N.3     1  UNL1       -0.2835
      3 C         144.1167  141.6776  158.2996 C.3     1  UNL1        0.1165
      4 C         144.2708  142.4301  159.5880 C.3     1  UNL1        0.0511
      5 C         143.5246  141.9847  160.8106 C.2     1  UNL1       -0.0038
      6 C         142.6243  140.7868  160.7448 C.2     1  UNL1        0.0753
      7 N         142.0210  140.5853  162.1033 N.2     1  UNL1       -0.2520
      8 C         142.5484  141.6586  163.0087 C.2     1  UNL1        0.0627
      9 C         142.3026  141.9602  164.4573 C.3     1  UNL1        0.0717
     10 C         142.9861  143.1267  165.1070 C.2     1  UNL1       -0.0198
     11 C         143.9154  143.9916  164.3081 C.2     1  UNL1       -0.0042
     12 C         144.1612  143.6900  162.8594 C.2     1  UNL1        0.0006
     13 C         143.4778  142.5236  162.2097 C.2     1  UNL1        0.0111
     14 H         142.5173  140.6757  157.5173 H       1  UNL1        0.1244
     15 C         142.4059  136.8001  157.1574 C.ar    1  UNL1        0.0945
     16 C         141.0601  136.9393  156.5098 C.ar    1  UNL1        0.1053
     17 N         140.1843  138.1102  156.8444 N.ar    1  UNL1       -0.2424
     18 C         140.6543  139.1419  157.8266 C.ar    1  UNL1        0.0965
     19 C         142.0001  139.0026  158.4742 C.ar    1  UNL1        0.0191
     20 C         142.8759  137.8317  158.1396 C.ar    1  UNL1        0.0072
     21 C         143.2817  135.6291  156.8227 C.2     1  UNL1        0.3427
     22 O         144.0688  135.6221  155.5458 O.2     1  UNL1       -0.2448
     23 O         143.3703  134.4654  157.7649 O.3     1  UNL1       -0.4454
     24 C         144.9054  132.3695  157.7345 C.3     1  UNL1        0.0513
     25 C         143.6911  133.0976  157.2392 C.3     1  UNL1        0.2089
     26 C         141.5607  139.2306  160.3380 C.ar    1  UNL1        0.0393
     27 C         141.9464  138.0157  161.1286 C.ar    1  UNL1        0.1193
     28 N         140.7299  137.5351  161.8629 N.ar    1  UNL1       -0.1679
     29 N         139.5924  138.4529  161.5261 N.ar    1  UNL1       -0.2476
     30 C         138.1880  138.3423  162.0413 C.3     1  UNL1        0.1537
     31 C         140.1058  139.5009  160.5836 C.ar    1  UNL1        0.0943
     32 C         144.8629  142.1231  157.0770 C.ar    1  UNL1        0.1318
     33 N         146.3285  141.9330  156.8207 N.ar    1  UNL1       -0.2298
     34 C         146.6460  142.5292  155.4813 C.ar    1  UNL1        0.0996
     35 C         145.3765  143.0877  154.9100 C.ar    1  UNL1        0.0927
     36 N         144.2745  142.8367  155.8961 N.ar    1  UNL1       -0.3386
     37 H         143.3307  143.0950  155.7874 H       1  UNL1        0.1672
     38 C         147.9959  142.5613  154.8281 C.ar    1  UNL1        0.0193
     39 C         149.1228  141.7495  155.3948 C.ar    1  UNL1        0.0039
     40 C         150.4727  141.7815  154.7417 C.ar    1  UNL1        0.0297
     41 C         150.6958  142.6253  153.5218 C.ar    1  UNL1        0.1401
     42 F         152.0457  142.6574  152.8685 F       1  UNL1       -0.2042
     43 C         149.5689  143.4371  152.9550 C.ar    1  UNL1        0.0297
     44 C         148.2190  143.4051  153.6082 C.ar    1  UNL1        0.0039
@<TRIPOS>BOND
     1    24    25    1
     2    25    23    1
     3    23    21    1
     4    21    22    2
     5    21    15    1
     6    15    16   ar
     7    16    17   ar
     8    17    18   ar
     9    18    19   ar
    10     1    19    1
    11     1    26    1
    12    26    27   ar
    13    27    28   ar
    14    28    29   ar
    15    29    30    1
    16    29    31   ar
    17     1     2    1
    18     2     3    1
    19     3    32    1
    20    32    33   ar
    21    33    34   ar
    22    34    38    1
    23    38    39   ar
    24    39    40   ar
    25    40    41   ar
    26    41    42    1
    27    41    43   ar
    28    43    44   ar
    29    34    35   ar
    30    35    36   ar
    31     3     4    1
    32     4     5    1
    33     5     6    2
    34     6     7    1
    35     7     8    2
    36     8     9    1
    37     9    10    1
    38    10    11    2
    39    11    12    1
    40    12    13    2
    41    19    20   ar
    42    20    15   ar
    43     6     1    1
    44    13     8    1
    45    31    26   ar
    46    36    32   ar
    47    13     5    1
    48    44    38   ar
    49     2    14    1
    50    36    37    1
@<TRIPOS>MOLECULE
*****
 44 50 0 0 0
SMALL
GASTEIGER

@<TRIPOS>ATOM
      1 C         141.4753  141.1877  160.0138 C.3     1  UNL1        0.1205
      2 N         140.9235  142.0179  158.8930 N.3     1  UNL1       -0.2835
      3 C         141.0148  143.5139  158.9525 C.3     1  UNL1        0.1165
      4 C         141.6580  144.1798  160.1328 C.3     1  UNL1        0.0511
      5 C         142.2098  143.3496  161.2536 C.2     1  UNL1       -0.0038
      6 C         142.1184  141.8535  161.1941 C.2     1  UNL1        0.0753
      7 N         142.7464  141.3010  162.4392 N.2     1  UNL1       -0.2520
      8 C         143.2257  142.4555  163.2683 C.2     1  UNL1        0.0627
      9 C         143.9214  142.5175  164.5957 C.3     1  UNL1        0.0717
     10 C         144.2853  143.8455  165.1904 C.2     1  UNL1       -0.0198
     11 C         143.9537  145.1117  164.4576 C.2     1  UNL1       -0.0042
     12 C         143.2581  145.0497  163.1302 C.2     1  UNL1        0.0006
     13 C         142.8941  143.7216  162.5355 C.2     1  UNL1        0.0111
     14 H         139.9333  141.7862  158.8148 H       1  UNL1        0.1244
     15 C         141.4108  138.0895  157.5345 C.ar    1  UNL1        0.0945
     16 C         139.9352  137.9326  157.3152 C.ar    1  UNL1        0.1053
     17 N         138.9730  138.8607  157.9955 N.ar    1  UNL1       -0.2424
     18 C         139.4864  139.9458  158.8950 C.ar    1  UNL1        0.0965
     19 C         140.9620  140.1027  159.1143 C.ar    1  UNL1        0.0191
     20 C         141.9241  139.1745  158.4340 C.ar    1  UNL1        0.0072
     21 C         142.3729  137.1614  156.8541 C.2     1  UNL1        0.3427
     22 O         143.7601  137.6281  156.5257 O.2     1  UNL1       -0.2448
     23 O         141.9479  135.7666  156.5023 O.3     1  UNL1       -0.4454
     24 C         143.5239  134.0309  157.6219 C.3     1  UNL1        0.0513
     25 C         142.9724  134.6772  156.3858 C.3     1  UNL1        0.2089
     26 C         141.8489  139.9807  160.8223 C.ar    1  UNL1        0.0393
     27 C         143.1887  139.3065  160.8325 C.ar    1  UNL1        0.1193
     28 N         143.1160  138.1451  161.7791 N.ar    1  UNL1       -0.1679
     29 N         141.7311  138.1015  162.3537 N.ar    1  UNL1       -0.2476
     30 C         141.2193  137.0994  163.3456 C.3     1  UNL1        0.1537
     31 C         140.9480  139.2360  161.7623 C.ar    1  UNL1        0.0943
     32 C         140.4630  144.3442  157.8316 C.ar    1  UNL1        0.1318
     33 N         140.2925  145.8344  157.8396 N.ar    1  UNL1       -0.2298
     34 C         139.7089  146.2413  156.5190 C.ar    1  UNL1        0.0996
     35 C         139.5189  145.0025  155.6949 C.ar    1  UNL1        0.0927
     36 N         139.9849  143.8300  156.5061 N.ar    1  UNL1       -0.3386
     37 H         139.9782  142.8884  156.2190 H       1  UNL1        0.1672
     38 C         139.3742  147.6412  156.0967 C.ar    1  UNL1        0.0193
     39 C         138.6261  148.5472  157.0292 C.ar    1  UNL1        0.0039
     40 C         138.2914  149.9471  156.6069 C.ar    1  UNL1        0.0297
     41 C         138.7048  150.4409  155.2523 C.ar    1  UNL1        0.1401
     42 F         138.3701  151.8408  154.8300 F       1  UNL1       -0.2042
     43 C         139.4529  149.5349  154.3198 C.ar    1  UNL1        0.0297
     44 C         139.7876  148.1350  154.7420 C.ar    1  UNL1        0.0039
@<TRIPOS>BOND
     1    24    25    1
     2    25    23    1
     3    23    21    1
     4    21    22    2
     5    21    15    1
     6    15    16   ar
     7    16    17   ar
     8    17    18   ar
     9    18    19   ar
    10     1    19    1
    11     1    26    1
    12    26    27   ar
    13    27    28   ar
    14    28    29   ar
    15    29    30    1
    16    29    31   ar
    17     1     2    1
    18     2     3    1
    19     3    32    1
    20    32    33   ar
    21    33    34   ar
    22    34    38    1
    23    38    39   ar
    24    39    40   ar
    25    40    41   ar
    26    41    42    1
    27    41    43   ar
    28    43    44   ar
    29    34    35   ar
    30    35    36   ar
    31     3     4    1
    32     4     5    1
    33     5     6    2
    34     6     7    1
    35     7     8    2
    36     8     9    1
    37     9    10    1
    38    10    11    2
    39    11    12    1
    40    12    13    2
    41    19    20   ar
    42    20    15   ar
    43     6     1    1
    44    13     8    1
    45    31    26   ar
    46    36    32   ar
    47    13     5    1
    48    44    38   ar
    49     2    14    1
    50    36    37    1
@<TRIPOS>MOLECULE
*****
 44 50 0 0 0
SMALL
GASTEIGER

@<TRIPOS>ATOM
      1 C         142.3418  141.2054  159.8404 C.3     1  UNL1        0.1205
      2 N         142.7533  139.9263  159.1738 N.3     1  UNL1       -0.2835
      3 C         142.6919  139.8055  157.6800 C.3     1  UNL1        0.1165
      4 C         142.2190  140.9640  156.8527 C.3     1  UNL1        0.0511
      5 C         141.8075  142.2432  157.5192 C.2     1  UNL1       -0.0038
      6 C         141.8689  142.3639  159.0131 C.2     1  UNL1        0.0753
      7 N         141.4022  143.7397  159.3865 N.2     1  UNL1       -0.2520
      8 C         141.0524  144.4692  158.1234 C.2     1  UNL1        0.0627
      9 C         140.5382  145.8562  157.8750 C.3     1  UNL1        0.0717
     10 C         140.2744  146.3183  156.4725 C.2     1  UNL1       -0.0198
     11 C         140.5249  145.3934  155.3185 C.2     1  UNL1       -0.0042
     12 C         141.0391  144.0064  155.5669 C.2     1  UNL1        0.0006
     13 C         141.3029  143.5443  156.9693 C.2     1  UNL1        0.0111
     14 H         142.1566  139.1912  159.5534 H       1  UNL1        0.1244
     15 C         142.1265  138.5792  162.8079 C.ar    1  UNL1        0.0945
     16 C         143.4676  138.7692  163.4525 C.ar    1  UNL1        0.1053
     17 N         144.4334  139.7712  162.8930 N.ar    1  UNL1       -0.2424
     18 C         144.0581  140.5834  161.6889 C.ar    1  UNL1        0.0965
     19 C         142.7170  140.3934  161.0444 C.ar    1  UNL1        0.0191
     20 C         141.7513  139.3912  161.6039 C.ar    1  UNL1        0.0072
     21 C         141.1607  137.5770  163.3674 C.2     1  UNL1        0.3427
     22 O         141.4136  136.9614  164.7117 O.2     1  UNL1       -0.2448
     23 O         139.9422  137.1907  162.5827 O.3     1  UNL1       -0.4454
     24 C         138.0674  138.9154  162.0724 C.3     1  UNL1        0.0513
     25 C         138.6122  137.8000  162.9143 C.3     1  UNL1        0.2089
     26 C         142.0606  142.2027  160.9251 C.ar    1  UNL1        0.0393
     27 C         140.7603  142.3695  161.6539 C.ar    1  UNL1        0.1193
     28 N         140.9265  143.4781  162.6506 N.ar    1  UNL1       -0.1679
     29 N         142.3296  143.9963  162.5379 N.ar    1  UNL1       -0.2476
     30 C         142.9268  145.1077  163.3491 C.3     1  UNL1        0.1537
     31 C         143.0305  143.2080  161.4714 C.ar    1  UNL1        0.0943
     32 C         143.1034  138.5263  157.0133 C.ar    1  UNL1        0.1318
     33 N         142.5601  137.1610  157.3142 N.ar    1  UNL1       -0.2298
     34 C         143.2513  136.1787  156.4156 C.ar    1  UNL1        0.0996
     35 C         144.2218  136.9370  155.5595 C.ar    1  UNL1        0.0927
     36 N         144.1304  138.3880  155.9288 N.ar    1  UNL1       -0.3386
     37 H         144.6527  139.1208  155.5296 H       1  UNL1        0.1672
     38 C         143.0138  134.6980  156.3796 C.ar    1  UNL1        0.0193
     39 C         141.9033  134.1368  155.5418 C.ar    1  UNL1        0.0039
     40 C         141.6657  132.6562  155.5058 C.ar    1  UNL1        0.0297
     41 C         142.5386  131.7368  156.3076 C.ar    1  UNL1        0.1401
     42 F         142.3010  130.2561  156.2715 F       1  UNL1       -0.2042
     43 C         143.6490  132.2981  157.1454 C.ar    1  UNL1        0.0297
     44 C         143.8866  133.7787  157.1814 C.ar    1  UNL1        0.0039
@<TRIPOS>BOND
     1    24    25    1
     2    25    23    1
     3    23    21    1
     4    21    22    2
     5    21    15    1
     6    15    16   ar
     7    16    17   ar
     8    17    18   ar
     9    18    19   ar
    10     1    19    1
    11     1    26    1
    12    26    27   ar
    13    27    28   ar
    14    28    29   ar
    15    29    30    1
    16    29    31   ar
    17     1     2    1
    18     2     3    1
    19     3    32    1
    20    32    33   ar
    21    33    34   ar
    22    34    38    1
    23    38    39   ar
    24    39    40   ar
    25    40    41   ar
    26    41    42    1
    27    41    43   ar
    28    43    44   ar
    29    34    35   ar
    30    35    36   ar
    31     3     4    1
    32     4     5    1
    33     5     6    2
    34     6     7    1
    35     7     8    2
    36     8     9    1
    37     9    10    1
    38    10    11    2
    39    11    12    1
    40    12    13    2
    41    19    20   ar
    42    20    15   ar
    43     6     1    1
    44    13     8    1
    45    31    26   ar
    46    36    32   ar
    47    13     5    1
    48    44    38   ar
    49     2    14    1
    50    36    37    1
@<TRIPOS>MOLECULE
*****
 44 50 0 0 0
SMALL
GASTEIGER

@<TRIPOS>ATOM
      1 C         141.3270  140.5055  159.8463 C.3     1  UNL1        0.1205
      2 N         141.8770  139.2742  159.1895 N.3     1  UNL1       -0.2835
      3 C         142.2635  139.3062  157.7405 C.3     1  UNL1        0.1165
      4 C         142.0999  140.5695  156.9483 C.3     1  UNL1        0.0511
      5 C         141.5500  141.8007  157.6052 C.2     1  UNL1       -0.0038
      6 C         141.1635  141.7687  159.0542 C.2     1  UNL1        0.0753
      7 N         140.6523  143.1286  159.4276 N.2     1  UNL1       -0.2520
      8 C         140.7228  144.0010  158.2095 C.2     1  UNL1        0.0627
      9 C         140.3535  145.4366  157.9804 C.3     1  UNL1        0.0717
     10 C         140.5390  146.0516  156.6249 C.2     1  UNL1       -0.0198
     11 C         141.0938  145.2309  155.4985 C.2     1  UNL1       -0.0042
     12 C         141.4631  143.7953  155.7276 C.2     1  UNL1        0.0006
     13 C         141.2776  143.1803  157.0831 C.2     1  UNL1        0.0111
     14 H         141.1697  138.5462  159.2896 H       1  UNL1        0.1244
     15 C         142.3293  138.6734  163.2211 C.ar    1  UNL1        0.0945
     16 C         141.2332  137.6549  163.3270 C.ar    1  UNL1        0.1053
     17 N         140.1684  137.5865  162.2727 N.ar    1  UNL1       -0.2424
     18 C         140.1997  138.5368  161.1124 C.ar    1  UNL1        0.0965
     19 C         141.2958  139.5553  161.0065 C.ar    1  UNL1        0.0191
     20 C         142.3605  139.6236  162.0609 C.ar    1  UNL1        0.0072
     21 C         143.3941  138.7417  164.2754 C.2     1  UNL1        0.3427
     22 O         143.0876  138.3124  165.6796 O.2     1  UNL1       -0.2448
     23 O         144.7651  139.2392  163.9255 O.3     1  UNL1       -0.4454
     24 C         145.4285  141.6070  163.0868 C.3     1  UNL1        0.0513
     25 C         145.1436  140.6614  164.2157 C.3     1  UNL1        0.2089
     26 C         140.7662  141.4068  160.9061 C.ar    1  UNL1        0.0393
     27 C         141.5575  142.3117  161.8032 C.ar    1  UNL1        0.1193
     28 N         140.5958  143.0256  162.7064 N.ar    1  UNL1       -0.1679
     29 N         139.2102  142.5619  162.3674 N.ar    1  UNL1       -0.2476
     30 C         137.9419  143.0185  163.0254 C.3     1  UNL1        0.1537
     31 C         139.3155  141.5614  161.2547 C.ar    1  UNL1        0.0943
     32 C         142.8135  138.0749  157.0836 C.ar    1  UNL1        0.1318
     33 N         142.3936  136.6628  157.3657 N.ar    1  UNL1       -0.2298
     34 C         143.2005  135.7547  156.4857 C.ar    1  UNL1        0.0996
     35 C         144.1191  136.6056  155.6598 C.ar    1  UNL1        0.0927
     36 N         143.8799  138.0396  156.0293 N.ar    1  UNL1       -0.3386
     37 H         144.3417  138.8205  155.6470 H       1  UNL1        0.1672
     38 C         143.1055  134.2584  156.4398 C.ar    1  UNL1        0.0193
     39 C         142.0441  133.5995  155.6095 C.ar    1  UNL1        0.0039
     40 C         141.9490  132.1032  155.5635 C.ar    1  UNL1        0.0297
     41 C         142.9153  131.2659  156.3478 C.ar    1  UNL1        0.1401
     42 F         142.8203  129.7696  156.3019 F       1  UNL1       -0.2042
     43 C         143.9767  131.9248  157.1781 C.ar    1  UNL1        0.0297
     44 C         144.0717  133.4211  157.2240 C.ar    1  UNL1        0.0039
@<TRIPOS>BOND
     1    24    25    1
     2    25    23    1
     3    23    21    1
     4    21    22    2
     5    21    15    1
     6    15    16   ar
     7    16    17   ar
     8    17    18   ar
     9    18    19   ar
    10     1    19    1
    11     1    26    1
    12    26    27   ar
    13    27    28   ar
    14    28    29   ar
    15    29    30    1
    16    29    31   ar
    17     1     2    1
    18     2     3    1
    19     3    32    1
    20    32    33   ar
    21    33    34   ar
    22    34    38    1
    23    38    39   ar
    24    39    40   ar
    25    40    41   ar
    26    41    42    1
    27    41    43   ar
    28    43    44   ar
    29    34    35   ar
    30    35    36   ar
    31     3     4    1
    32     4     5    1
    33     5     6    2
    34     6     7    1
    35     7     8    2
    36     8     9    1
    37     9    10    1
    38    10    11    2
    39    11    12    1
    40    12    13    2
    41    19    20   ar
    42    20    15   ar
    43     6     1    1
    44    13     8    1
    45    31    26   ar
    46    36    32   ar
    47    13     5    1
    48    44    38   ar
    49     2    14    1
    50    36    37    1
@<TRIPOS>MOLECULE
*****
 44 50 0 0 0
SMALL
GASTEIGER

@<TRIPOS>ATOM
      1 C         142.2286  142.6697  159.8103 C.3     1  UNL1        0.1205
      2 N         141.7123  143.3796  158.5940 N.3     1  UNL1       -0.2835
      3 C         140.5875  144.3638  158.7210 C.3     1  UNL1        0.1165
      4 C         139.9790  144.6381  160.0644 C.3     1  UNL1        0.0511
      5 C         140.4953  143.9282  161.2807 C.2     1  UNL1       -0.0038
      6 C         141.6201  142.9439  161.1536 C.2     1  UNL1        0.0753
      7 N         141.9170  142.4006  162.5199 N.2     1  UNL1       -0.2520
      8 C         140.9758  143.0490  163.4913 C.2     1  UNL1        0.0627
      9 C         140.8053  142.9017  164.9742 C.3     1  UNL1        0.0717
     10 C         139.7561  143.6985  165.6913 C.2     1  UNL1       -0.0198
     11 C         138.8774  144.6426  164.9254 C.2     1  UNL1       -0.0042
     12 C         139.0479  144.7899  163.4425 C.2     1  UNL1        0.0006
     13 C         140.0971  143.9931  162.7254 C.2     1  UNL1        0.0111
     14 H         141.4010  142.6592  157.9425 H       1  UNL1        0.1244
     15 C         143.6200  140.2213  157.0140 C.ar    1  UNL1        0.0945
     16 C         144.9162  140.8928  156.6687 C.ar    1  UNL1        0.1053
     17 N         145.3164  142.1566  157.3706 N.ar    1  UNL1       -0.2424
     18 C         144.4205  142.7489  158.4179 C.ar    1  UNL1        0.0965
     19 C         143.1244  142.0774  158.7631 C.ar    1  UNL1        0.0191
     20 C         142.7242  140.8136  158.0611 C.ar    1  UNL1        0.0072
     21 C         143.2198  138.9576  156.3120 C.2     1  UNL1        0.3427
     22 O         142.4212  139.0246  155.0440 O.2     1  UNL1       -0.2448
     23 O         143.6183  137.6269  156.8780 O.3     1  UNL1       -0.4454
     24 C         143.3162  135.0529  156.6947 C.3     1  UNL1        0.0513
     25 C         142.7300  136.4336  156.6852 C.3     1  UNL1        0.2089
     26 C         143.0560  141.7540  160.6630 C.ar    1  UNL1        0.0393
     27 C         144.3544  142.1024  161.3282 C.ar    1  UNL1        0.1193
     28 N         144.8310  140.8929  162.0765 N.ar    1  UNL1       -0.1679
     29 N         143.8272  139.7970  161.8736 N.ar    1  UNL1       -0.2476
     30 C         143.9065  138.4120  162.4442 C.3     1  UNL1        0.1537
     31 C         142.7301  140.3292  161.0000 C.ar    1  UNL1        0.0943
     32 C         140.0711  145.0738  157.5047 C.ar    1  UNL1        0.1318
     33 N         140.1842  146.5436  157.2274 N.ar    1  UNL1       -0.2298
     34 C         139.5340  146.8168  155.9035 C.ar    1  UNL1        0.0996
     35 C         139.0192  145.5159  155.3627 C.ar    1  UNL1        0.0927
     36 N         139.3511  144.4387  156.3523 N.ar    1  UNL1       -0.3386
     37 H         139.1344  143.4826  156.2614 H       1  UNL1        0.1672
     38 C         139.4190  148.1560  155.2374 C.ar    1  UNL1        0.0193
     39 C         138.7648  149.2979  155.9572 C.ar    1  UNL1        0.0039
     40 C         138.6498  150.6369  155.2912 C.ar    1  UNL1        0.0297
     41 C         139.1888  150.8341  153.9054 C.ar    1  UNL1        0.1401
     42 F         139.0738  152.1732  153.2393 F       1  UNL1       -0.2042
     43 C         139.8430  149.6922  153.1856 C.ar    1  UNL1        0.0297
     44 C         139.9581  148.3531  153.8516 C.ar    1  UNL1        0.0039
@<TRIPOS>BOND
     1    24    25    1
     2    25    23    1
     3    23    21    1
     4    21    22    2
     5    21    15    1
     6    15    16   ar
     7    16    17   ar
     8    17    18   ar
     9    18    19   ar
    10     1    19    1
    11     1    26    1
    12    26    27   ar
    13    27    28   ar
    14    28    29   ar
    15    29    30    1
    16    29    31   ar
    17     1     2    1
    18     2     3    1
    19     3    32    1
    20    32    33   ar
    21    33    34   ar
    22    34    38    1
    23    38    39   ar
    24    39    40   ar
    25    40    41   ar
    26    41    42    1
    27    41    43   ar
    28    43    44   ar
    29    34    35   ar
    30    35    36   ar
    31     3     4    1
    32     4     5    1
    33     5     6    2
    34     6     7    1
    35     7     8    2
    36     8     9    1
    37     9    10    1
    38    10    11    2
    39    11    12    1
    40    12    13    2
    41    19    20   ar
    42    20    15   ar
    43     6     1    1
    44    13     8    1
    45    31    26   ar
    46    36    32   ar
    47    13     5    1
    48    44    38   ar
    49     2    14    1
    50    36    37    1
@<TRIPOS>MOLECULE
*****
 44 50 0 0 0
SMALL
GASTEIGER

@<TRIPOS>ATOM
      1 C         139.8174  140.7476  159.3664 C.3     1  UNL1        0.1205
      2 N         140.0529  139.4217  158.7056 N.3     1  UNL1       -0.2835
      3 C         140.4786  139.3652  157.2684 C.3     1  UNL1        0.1165
      4 C         140.6688  140.6344  156.4919 C.3     1  UNL1        0.0511
      5 C         140.4334  141.9603  157.1527 C.2     1  UNL1       -0.0038
      6 C         140.0077  142.0169  158.5899 C.2     1  UNL1        0.0753
      7 N         139.8513  143.4593  158.9705 N.2     1  UNL1       -0.2520
      8 C         140.1804  144.2942  157.7686 C.2     1  UNL1        0.0627
      9 C         140.1989  145.7783  157.5520 C.3     1  UNL1        0.0717
     10 C         140.5771  146.3360  156.2119 C.2     1  UNL1       -0.0198
     11 C         140.9369  145.4095  155.0884 C.2     1  UNL1       -0.0042
     12 C         140.9184  143.9254  155.3050 C.2     1  UNL1        0.0006
     13 C         140.5401  143.3677  156.6451 C.2     1  UNL1        0.0111
     14 H         139.1798  138.8990  158.7748 H       1  UNL1        0.1244
     15 C         140.3150  138.2999  162.4504 C.ar    1  UNL1        0.0945
     16 C         138.8895  137.9886  162.7980 C.ar    1  UNL1        0.1053
     17 N         137.7732  138.5968  162.0018 N.ar    1  UNL1       -0.2424
     18 C         138.0826  139.5166  160.8579 C.ar    1  UNL1        0.0965
     19 C         139.5081  139.8279  160.5102 C.ar    1  UNL1        0.0191
     20 C         140.6243  139.2196  161.3065 C.ar    1  UNL1        0.0072
     21 C         141.4312  137.6916  163.2467 C.2     1  UNL1        0.3427
     22 O         141.1215  136.8174  164.4257 O.2     1  UNL1       -0.2448
     23 O         142.8569  137.9574  162.8640 O.3     1  UNL1       -0.4454
     24 C         144.4404  140.0115  162.7103 C.3     1  UNL1        0.0513
     25 C         143.6192  139.0629  163.5324 C.3     1  UNL1        0.2089
     26 C         139.4746  141.7541  160.4244 C.ar    1  UNL1        0.0393
     27 C         138.1276  142.3754  160.6468 C.ar    1  UNL1        0.1193
     28 N         138.2391  143.3213  161.8057 N.ar    1  UNL1       -0.1679
     29 N         139.6550  143.2845  162.2994 N.ar    1  UNL1       -0.2476
     30 C         140.2100  144.0772  163.4456 C.3     1  UNL1        0.1537
     31 C         140.4186  142.3159  161.4457 C.ar    1  UNL1        0.0943
     32 C         140.7141  138.0393  156.6075 C.ar    1  UNL1        0.1318
     33 N         141.8060  137.0677  156.9447 N.ar    1  UNL1       -0.2298
     34 C         141.6658  135.8802  156.0391 C.ar    1  UNL1        0.0996
     35 C         140.4872  136.1179  155.1422 C.ar    1  UNL1        0.0927
     36 N         139.8990  137.4522  155.4935 N.ar    1  UNL1       -0.3386
     37 H         139.1156  137.8695  155.0677 H       1  UNL1        0.1672
     38 C         142.5491  134.6678  156.0317 C.ar    1  UNL1        0.0193
     39 C         142.5278  133.7315  154.8601 C.ar    1  UNL1        0.0039
     40 C         143.4110  132.5192  154.8526 C.ar    1  UNL1        0.0297
     41 C         144.3156  132.2432  156.0169 C.ar    1  UNL1        0.1401
     42 F         145.1990  131.0308  156.0095 F       1  UNL1       -0.2042
     43 C         144.3370  133.1795  157.1885 C.ar    1  UNL1        0.0297
     44 C         143.4537  134.3918  157.1960 C.ar    1  UNL1        0.0039
@<TRIPOS>BOND
     1    24    25    1
     2    25    23    1
     3    23    21    1
     4    21    22    2
     5    21    15    1
     6    15    16   ar
     7    16    17   ar
     8    17    18   ar
     9    18    19   ar
    10     1    19    1
    11     1    26    1
    12    26    27   ar
    13    27    28   ar
    14    28    29   ar
    15    29    30    1
    16    29    31   ar
    17     1     2    1
    18     2     3    1
    19     3    32    1
    20    32    33   ar
    21    33    34   ar
    22    34    38    1
    23    38    39   ar
    24    39    40   ar
    25    40    41   ar
    26    41    42    1
    27    41    43   ar
    28    43    44   ar
    29    34    35   ar
    30    35    36   ar
    31     3     4    1
    32     4     5    1
    33     5     6    2
    34     6     7    1
    35     7     8    2
    36     8     9    1
    37     9    10    1
    38    10    11    2
    39    11    12    1
    40    12    13    2
    41    19    20   ar
    42    20    15   ar
    43     6     1    1
    44    13     8    1
    45    31    26   ar
    46    36    32   ar
    47    13     5    1
    48    44    38   ar
    49     2    14    1
    50    36    37    1
@<TRIPOS>MOLECULE
*****
 44 50 0 0 0
SMALL
GASTEIGER

@<TRIPOS>ATOM
      1 C         142.4562  140.0504  159.3945 C.3     1  UNL1        0.1205
      2 N         143.2085  140.4970  158.1761 N.3     1  UNL1       -0.2835
      3 C         144.1512  141.6606  158.2614 C.3     1  UNL1        0.1165
      4 C         144.3415  142.3777  159.5651 C.3     1  UNL1        0.0511
      5 C         143.5892  141.9311  160.7835 C.2     1  UNL1       -0.0038
      6 C         142.6465  140.7675  160.6982 C.2     1  UNL1        0.0753
      7 N         142.0466  140.5564  162.0567 N.2     1  UNL1       -0.2520
      8 C         142.6185  141.5896  162.9816 C.2     1  UNL1        0.0627
      9 C         142.3944  141.8665  164.4387 C.3     1  UNL1        0.0717
     10 C         143.1236  142.9931  165.1088 C.2     1  UNL1       -0.0198
     11 C         144.0770  143.8427  164.3219 C.2     1  UNL1       -0.0042
     12 C         144.3011  143.5658  162.8649 C.2     1  UNL1        0.0006
     13 C         143.5719  142.4392  162.1947 C.2     1  UNL1        0.0111
     14 H         142.5115  140.7338  157.4700 H       1  UNL1        0.1244
     15 C         140.1908  138.3714  156.6018 C.ar    1  UNL1        0.0945
     16 C         140.9154  137.0751  156.3906 C.ar    1  UNL1        0.1053
     17 N         142.1535  136.7705  157.1807 N.ar    1  UNL1       -0.2424
     18 C         142.6671  137.7624  158.1820 C.ar    1  UNL1        0.0965
     19 C         141.9426  139.0587  158.3932 C.ar    1  UNL1        0.0191
     20 C         140.7044  139.3632  157.6031 C.ar    1  UNL1        0.0072
     21 C         138.9527  138.6759  155.8117 C.2     1  UNL1        0.3427
     22 O         138.1047  137.5561  155.2852 O.2     1  UNL1       -0.2448
     23 O         138.5626  140.1000  155.5480 O.3     1  UNL1       -0.4454
     24 C         137.3985  142.0187  156.8570 C.3     1  UNL1        0.0513
     25 C         137.3372  140.6741  156.1952 C.3     1  UNL1        0.2089
     26 C         141.5254  139.2594  160.2652 C.ar    1  UNL1        0.0393
     27 C         141.8972  138.0720  161.1027 C.ar    1  UNL1        0.1193
     28 N         140.6610  137.5957  161.8064 N.ar    1  UNL1       -0.1679
     29 N         139.5253  138.4889  161.4037 N.ar    1  UNL1       -0.2476
     30 C         138.1046  138.3740  161.8714 C.3     1  UNL1        0.1537
     31 C         140.0595  139.5172  160.4511 C.ar    1  UNL1        0.0943
     32 C         144.9036  142.1073  157.0429 C.ar    1  UNL1        0.1318
     33 N         146.3734  141.9315  156.8008 N.ar    1  UNL1       -0.2298
     34 C         146.6965  142.5237  155.4610 C.ar    1  UNL1        0.0996
     35 C         145.4263  143.0653  154.8752 C.ar    1  UNL1        0.0927
     36 N         144.3182  142.8080  155.8529 N.ar    1  UNL1       -0.3386
     37 H         143.3728  143.0555  155.7343 H       1  UNL1        0.1672
     38 C         148.0519  142.5666  154.8197 C.ar    1  UNL1        0.0193
     39 C         149.1714  141.7378  155.3761 C.ar    1  UNL1        0.0039
     40 C         150.5267  141.7806  154.7349 C.ar    1  UNL1        0.0297
     41 C         150.7625  142.6523  153.5372 C.ar    1  UNL1        0.1401
     42 F         152.1178  142.6952  152.8958 F       1  UNL1       -0.2042
     43 C         149.6429  143.4811  152.9807 C.ar    1  UNL1        0.0297
     44 C         148.2876  143.4382  153.6220 C.ar    1  UNL1        0.0039
@<TRIPOS>BOND
     1    24    25    1
     2    25    23    1
     3    23    21    1
     4    21    22    2
     5    21    15    1
     6    15    16   ar
     7    16    17   ar
     8    17    18   ar
     9    18    19   ar
    10     1    19    1
    11     1    26    1
    12    26    27   ar
    13    27    28   ar
    14    28    29   ar
    15    29    30    1
    16    29    31   ar
    17     1     2    1
    18     2     3    1
    19     3    32    1
    20    32    33   ar
    21    33    34   ar
    22    34    38    1
    23    38    39   ar
    24    39    40   ar
    25    40    41   ar
    26    41    42    1
    27    41    43   ar
    28    43    44   ar
    29    34    35   ar
    30    35    36   ar
    31     3     4    1
    32     4     5    1
    33     5     6    2
    34     6     7    1
    35     7     8    2
    36     8     9    1
    37     9    10    1
    38    10    11    2
    39    11    12    1
    40    12    13    2
    41    19    20   ar
    42    20    15   ar
    43     6     1    1
    44    13     8    1
    45    31    26   ar
    46    36    32   ar
    47    13     5    1
    48    44    38   ar
    49     2    14    1
    50    36    37    1
