@<TRIPOS>MOLECULE
*****
 35 39 0 0 0
SMALL
GASTEIGER

@<TRIPOS>ATOM
      1 C         138.0818  138.6765  166.2589 C.3     1  UNL1        0.0177
      2 C         139.3211  139.4638  166.5661 C.3     1  UNL1        0.0623
      3 C         139.5066  140.0703  167.9254 C.3     1  UNL1        0.0384
      4 C         140.7458  140.8577  168.2327 C.2     1  UNL1       -0.0343
      5 C         141.7996  141.0385  167.1806 C.2     1  UNL1       -0.0111
      6 C         143.0387  141.8258  167.4878 C.2     1  UNL1       -0.0020
      7 C         143.2243  142.4323  168.8472 C.2     1  UNL1        0.0169
      8 C         142.1706  142.2515  169.8993 C.2     1  UNL1        0.0896
      9 N         142.0768  142.7285  171.3183 N.2     1  UNL1       -0.1520
     10 N         140.7796  142.2359  171.8881 N.2     1  UNL1       -0.1507
     11 C         140.0716  141.4545  170.8212 C.2     1  UNL1        0.1054
     12 C         140.9313  141.4641  169.5920 C.3     1  UNL1        0.1032
     13 C         141.6140  140.4320  165.8212 C.3     1  UNL1        0.0996
     14 C         142.9500  141.0879  165.6338 C.3     1  UNL1        0.0267
     15 N         140.3748  139.6447  165.5140 N.3     1  UNL1       -0.2634
     16 C         141.8925  140.0533  164.3968 C.ar    1  UNL1        0.0758
     17 C         142.8304  138.9234  164.0908 C.ar    1  UNL1        0.0176
     18 C         143.1089  138.5447  162.6664 C.ar    1  UNL1        0.0171
     19 C         142.4494  139.2958  161.5479 C.ar    1  UNL1        0.0641
     20 C         141.5115  140.4257  161.8539 C.ar    1  UNL1        0.1127
     21 N         141.2331  140.8044  163.2784 N.ar    1  UNL1       -0.2453
     22 N         142.7279  138.9171  160.1235 N.pl3   1  UNL1       -0.3305
     23 H         142.4693  138.0272  159.7912 H       1  UNL1        0.1469
     24 C         143.4003  139.8943  159.2053 C.3     1  UNL1        0.1014
     25 C         143.6584  139.9578  157.7290 C.3     1  UNL1        0.0933
     26 N         144.3512  141.2763  157.9069 N.3     1  UNL1       -0.2697
     27 C         144.0931  141.2128  159.3831 C.3     1  UNL1        0.0933
     28 C         145.0236  142.2534  156.9888 C.3     1  UNL1        0.0751
     29 C         146.4266  142.0010  156.5221 C.3     1  UNL1        0.0554
     30 C         147.5452  142.8790  156.9993 C.3     1  UNL1        0.1947
     31 F         147.6246  143.2740  158.4442 F       1  UNL1       -0.2343
     32 C         140.1893  139.0382  164.1547 C.3     1  UNL1        0.1457
     33 C         139.8168  137.5912  164.0235 C.3     1  UNL1        0.3343
     34 F         140.6357  136.5404  164.7130 F       1  UNL1       -0.1969
     35 F         138.6253  137.1949  163.2028 F       1  UNL1       -0.1969
@<TRIPOS>BOND
     1     2     1    1
     2     2     3    1
     3     3     4    1
     4     4     5    2
     5     5     6    1
     6     6     7    2
     7     7     8    1
     8     8     9    2
     9     9    10    1
    10    10    11    2
    11    11    12    1
    12     5    13    1
    13    13    14    1
    14    13    16    1
    15    16    17   ar
    16    17    18   ar
    17    18    19   ar
    18    19    22    1
    19    22    24    1
    20    24    25    1
    21    25    26    1
    22    26    28    1
    23    28    29    1
    24    29    30    1
    25    30    31    1
    26    26    27    1
    27    19    20   ar
    28    20    21   ar
    29    13    15    1
    30    15    32    1
    31    32    33    1
    32    33    34    1
    33    33    35    1
    34    15     2    1
    35    12     4    1
    36    21    16   ar
    37    12     8    1
    38    27    24    1
    39    22    23    1
@<TRIPOS>MOLECULE
*****
 35 39 0 0 0
SMALL
GASTEIGER

@<TRIPOS>ATOM
      1 C         138.7214  138.5432  165.6743 C.3     1  UNL1        0.0177
      2 C         139.8358  139.4045  166.1903 C.3     1  UNL1        0.0623
      3 C         139.8009  139.9099  167.6021 C.3     1  UNL1        0.0384
      4 C         140.9153  140.7713  168.1182 C.2     1  UNL1       -0.0343
      5 C         142.0646  141.1271  167.2224 C.2     1  UNL1       -0.0111
      6 C         143.1789  141.9884  167.7384 C.2     1  UNL1       -0.0020
      7 C         143.1441  142.4939  169.1503 C.2     1  UNL1        0.0169
      8 C         141.9948  142.1380  170.0461 C.2     1  UNL1        0.0896
      9 N         141.6889  142.4863  171.4727 N.2     1  UNL1       -0.1520
     10 N         140.3855  141.8402  171.8383 N.2     1  UNL1       -0.1507
     11 C         139.8858  141.0926  170.6377 C.2     1  UNL1        0.1054
     12 C         140.8804  141.2767  169.5300 C.3     1  UNL1        0.1032
     13 C         142.0995  140.6217  165.8105 C.3     1  UNL1        0.0996
     14 C         143.3805  141.4015  165.8398 C.3     1  UNL1        0.0267
     15 N         140.9851  139.7604  165.2945 N.3     1  UNL1       -0.2634
     16 C         142.5793  140.3871  164.4088 C.ar    1  UNL1        0.0758
     17 C         143.5994  139.3224  164.1336 C.ar    1  UNL1        0.0176
     18 C         144.0792  139.0878  162.7319 C.ar    1  UNL1        0.0171
     19 C         143.5389  139.9178  161.6054 C.ar    1  UNL1        0.0641
     20 C         142.5187  140.9825  161.8806 C.ar    1  UNL1        0.1127
     21 N         142.0390  141.2171  163.2823 N.ar    1  UNL1       -0.2453
     22 N         144.0187  139.6832  160.2037 N.pl3   1  UNL1       -0.3305
     23 H         144.9299  139.9508  159.9441 H       1  UNL1        0.1469
     24 C         143.1102  139.0410  159.1976 C.3     1  UNL1        0.1014
     25 C         142.9425  139.1317  157.7098 C.3     1  UNL1        0.0933
     26 N         141.8254  138.1327  157.7748 N.3     1  UNL1       -0.2697
     27 C         141.9932  138.0420  159.2626 C.3     1  UNL1        0.0933
     28 C         140.9170  137.4905  156.7688 C.3     1  UNL1        0.0751
     29 C         141.3267  136.2144  156.0951 C.3     1  UNL1        0.0554
     30 C         142.7130  135.6756  156.2886 C.3     1  UNL1        0.1947
     31 F         143.1222  135.1184  157.6199 F       1  UNL1       -0.2343
     32 C         141.0200  139.2549  163.8826 C.3     1  UNL1        0.1457
     33 C         140.6764  137.8247  163.5893 C.3     1  UNL1        0.3343
     34 F         139.7080  137.4958  162.4919 F       1  UNL1       -0.1969
     35 F         141.3010  136.7231  164.3934 F       1  UNL1       -0.1969
@<TRIPOS>BOND
     1     2     1    1
     2     2     3    1
     3     3     4    1
     4     4     5    2
     5     5     6    1
     6     6     7    2
     7     7     8    1
     8     8     9    2
     9     9    10    1
    10    10    11    2
    11    11    12    1
    12     5    13    1
    13    13    14    1
    14    13    16    1
    15    16    17   ar
    16    17    18   ar
    17    18    19   ar
    18    19    22    1
    19    22    24    1
    20    24    25    1
    21    25    26    1
    22    26    28    1
    23    28    29    1
    24    29    30    1
    25    30    31    1
    26    26    27    1
    27    19    20   ar
    28    20    21   ar
    29    13    15    1
    30    15    32    1
    31    32    33    1
    32    33    34    1
    33    33    35    1
    34    15     2    1
    35    12     4    1
    36    21    16   ar
    37    12     8    1
    38    27    24    1
    39    22    23    1
@<TRIPOS>MOLECULE
*****
 35 39 0 0 0
SMALL
GASTEIGER

@<TRIPOS>ATOM
      1 C         138.4269  137.8909  165.7966 C.3     1  UNL1        0.0177
      2 C         138.9030  139.2251  166.2900 C.3     1  UNL1        0.0623
      3 C         139.2750  139.4022  167.7323 C.3     1  UNL1        0.0384
      4 C         139.7510  140.7363  168.2257 C.2     1  UNL1       -0.0343
      5 C         139.8551  141.8934  167.2769 C.2     1  UNL1       -0.0111
      6 C         140.3311  143.2275  167.7703 C.2     1  UNL1       -0.0020
      7 C         140.7031  143.4046  169.2126 C.2     1  UNL1        0.0169
      8 C         140.5990  142.2476  170.1615 C.2     1  UNL1        0.0896
      9 N         140.8933  142.1218  171.6270 N.2     1  UNL1       -0.1520
     10 N         140.5991  140.7099  172.0392 N.2     1  UNL1       -0.1507
     11 C         140.1230  139.9631  170.8286 C.2     1  UNL1        0.1054
     12 C         140.1230  140.9134  169.6681 C.3     1  UNL1        0.1032
     13 C         139.4831  141.7163  165.8345 C.3     1  UNL1        0.0996
     14 C         139.8775  143.1635  165.8260 C.3     1  UNL1        0.0267
     15 N         139.0070  140.3822  165.3411 N.3     1  UNL1       -0.2634
     16 C         139.2480  142.0418  164.3893 C.ar    1  UNL1        0.0758
     17 C         137.8782  142.4362  163.9224 C.ar    1  UNL1        0.0176
     18 C         137.6431  142.7617  162.4772 C.ar    1  UNL1        0.0171
     19 C         138.7780  142.6928  161.4987 C.ar    1  UNL1        0.0641
     20 C         140.1479  142.2984  161.9655 C.ar    1  UNL1        0.1127
     21 N         140.3828  141.9729  163.4108 N.ar    1  UNL1       -0.2453
     22 N         138.5430  143.0183  160.0534 N.pl3   1  UNL1       -0.3305
     23 H         137.6781  142.8038  159.6349 H       1  UNL1        0.1469
     24 C         139.6258  143.6706  159.2459 C.3     1  UNL1        0.1014
     25 C         140.3613  144.9761  159.3164 C.3     1  UNL1        0.0933
     26 N         141.1570  144.5931  158.1038 N.3     1  UNL1       -0.2697
     27 C         140.4215  143.2877  158.0334 C.3     1  UNL1        0.0933
     28 C         142.2398  145.2454  157.2963 C.3     1  UNL1        0.0751
     29 C         142.0510  145.4607  155.8239 C.3     1  UNL1        0.0554
     30 C         140.8457  146.1993  155.3223 C.3     1  UNL1        0.1947
     31 F         139.8952  146.8321  156.2950 F       1  UNL1       -0.2343
     32 C         138.6350  140.2050  163.8988 C.3     1  UNL1        0.1457
     33 C         138.9855  138.9335  163.1845 C.3     1  UNL1        0.3343
     34 F         137.9156  138.1437  162.4905 F       1  UNL1       -0.1969
     35 F         140.4059  138.4517  163.1642 F       1  UNL1       -0.1969
@<TRIPOS>BOND
     1     2     1    1
     2     2     3    1
     3     3     4    1
     4     4     5    2
     5     5     6    1
     6     6     7    2
     7     7     8    1
     8     8     9    2
     9     9    10    1
    10    10    11    2
    11    11    12    1
    12     5    13    1
    13    13    14    1
    14    13    16    1
    15    16    17   ar
    16    17    18   ar
    17    18    19   ar
    18    19    22    1
    19    22    24    1
    20    24    25    1
    21    25    26    1
    22    26    28    1
    23    28    29    1
    24    29    30    1
    25    30    31    1
    26    26    27    1
    27    19    20   ar
    28    20    21   ar
    29    13    15    1
    30    15    32    1
    31    32    33    1
    32    33    34    1
    33    33    35    1
    34    15     2    1
    35    12     4    1
    36    21    16   ar
    37    12     8    1
    38    27    24    1
    39    22    23    1
@<TRIPOS>MOLECULE
*****
 35 39 0 0 0
SMALL
GASTEIGER

@<TRIPOS>ATOM
      1 C         138.4039  138.0199  165.7382 C.3     1  UNL1        0.0177
      2 C         138.8996  139.3343  166.2641 C.3     1  UNL1        0.0623
      3 C         139.2611  139.4741  167.7132 C.3     1  UNL1        0.0384
      4 C         139.7568  140.7884  168.2392 C.2     1  UNL1       -0.0343
      5 C         139.8911  141.9631  167.3161 C.2     1  UNL1       -0.0111
      6 C         140.3867  143.2774  167.8420 C.2     1  UNL1       -0.0020
      7 C         140.7482  143.4172  169.2912 C.2     1  UNL1        0.0169
      8 C         140.6139  142.2426  170.2142 C.2     1  UNL1        0.0896
      9 N         140.8918  142.0805  171.6793 N.2     1  UNL1       -0.1520
     10 N         140.5679  140.6660  172.0588 N.2     1  UNL1       -0.1507
     11 C         140.0897  139.9538  170.8283 C.2     1  UNL1        0.1054
     12 C         140.1182  140.9282  169.6883 C.3     1  UNL1        0.1032
     13 C         139.5296  141.8233  165.8670 C.3     1  UNL1        0.0996
     14 C         139.9506  143.2629  165.8928 C.3     1  UNL1        0.0267
     15 N         139.0339  140.5090  165.3410 N.3     1  UNL1       -0.2634
     16 C         139.3144  142.1835  164.4269 C.ar    1  UNL1        0.0758
     17 C         137.9608  142.6305  163.9598 C.ar    1  UNL1        0.0176
     18 C         137.7456  142.9906  162.5197 C.ar    1  UNL1        0.0171
     19 C         138.8839  142.9038  161.5466 C.ar    1  UNL1        0.0641
     20 C         140.2374  142.4568  162.0137 C.ar    1  UNL1        0.1127
     21 N         140.4526  142.0967  163.4539 N.ar    1  UNL1       -0.2453
     22 N         138.6686  143.2640  160.1065 N.pl3   1  UNL1       -0.3305
     23 H         138.4652  144.1943  159.8569 H       1  UNL1        0.1469
     24 C         138.7634  142.2067  159.0467 C.3     1  UNL1        0.1014
     25 C         139.6648  141.9585  157.8736 C.3     1  UNL1        0.0933
     26 N         138.8975  140.7114  157.5479 N.3     1  UNL1       -0.2697
     27 C         137.9962  140.9597  158.7210 C.3     1  UNL1        0.0933
     28 C         138.9923  139.6542  156.4882 C.3     1  UNL1        0.0751
     29 C         139.8275  138.4304  156.7221 C.3     1  UNL1        0.0554
     30 C         140.4303  138.1806  158.0728 C.3     1  UNL1        0.1947
     31 F         139.5466  138.0692  159.2796 F       1  UNL1       -0.2343
     32 C         138.6725  140.3692  163.8919 C.3     1  UNL1        0.1457
     33 C         139.0481  139.1258  163.1418 C.3     1  UNL1        0.3343
     34 F         138.0023  138.3611  162.3857 F       1  UNL1       -0.1969
     35 F         140.4697  138.6469  163.1477 F       1  UNL1       -0.1969
@<TRIPOS>BOND
     1     2     1    1
     2     2     3    1
     3     3     4    1
     4     4     5    2
     5     5     6    1
     6     6     7    2
     7     7     8    1
     8     8     9    2
     9     9    10    1
    10    10    11    2
    11    11    12    1
    12     5    13    1
    13    13    14    1
    14    13    16    1
    15    16    17   ar
    16    17    18   ar
    17    18    19   ar
    18    19    22    1
    19    22    24    1
    20    24    25    1
    21    25    26    1
    22    26    28    1
    23    28    29    1
    24    29    30    1
    25    30    31    1
    26    26    27    1
    27    19    20   ar
    28    20    21   ar
    29    13    15    1
    30    15    32    1
    31    32    33    1
    32    33    34    1
    33    33    35    1
    34    15     2    1
    35    12     4    1
    36    21    16   ar
    37    12     8    1
    38    27    24    1
    39    22    23    1
@<TRIPOS>MOLECULE
*****
 35 39 0 0 0
SMALL
GASTEIGER

@<TRIPOS>ATOM
      1 C         138.5276  138.5958  165.9010 C.3     1  UNL1        0.0177
      2 C         139.6920  139.4226  166.3601 C.3     1  UNL1        0.0623
      3 C         139.7214  139.9655  167.7581 C.3     1  UNL1        0.0384
      4 C         140.8856  140.7923  168.2173 C.2     1  UNL1       -0.0343
      5 C         142.0205  141.0763  167.2785 C.2     1  UNL1       -0.0111
      6 C         143.1847  141.9031  167.7376 C.2     1  UNL1       -0.0020
      7 C         143.2142  142.4460  169.1357 C.2     1  UNL1        0.0169
      8 C         142.0793  142.1620  170.0745 C.2     1  UNL1        0.0896
      9 N         141.8321  142.5597  171.4995 N.2     1  UNL1       -0.1520
     10 N         140.5150  141.9786  171.9210 N.2     1  UNL1       -0.1507
     11 C         139.9482  141.2218  170.7565 C.2     1  UNL1        0.1054
     12 C         140.9150  141.3352  169.6153 C.3     1  UNL1        0.1032
     13 C         141.9910  140.5334  165.8804 C.3     1  UNL1        0.0996
     14 C         143.3035  141.2592  165.8505 C.3     1  UNL1        0.0267
     15 N         140.8268  139.7066  165.4213 N.3     1  UNL1       -0.2634
     16 C         142.4174  140.2426  164.4720 C.ar    1  UNL1        0.0758
     17 C         143.3906  139.1348  164.1965 C.ar    1  UNL1        0.0176
     18 C         143.8169  138.8440  162.7881 C.ar    1  UNL1        0.0171
     19 C         143.2702  139.6610  161.6551 C.ar    1  UNL1        0.0641
     20 C         142.2970  140.7687  161.9306 C.ar    1  UNL1        0.1127
     21 N         141.8707  141.0595  163.3391 N.ar    1  UNL1       -0.2453
     22 N         143.6965  139.3702  160.2467 N.pl3   1  UNL1       -0.3305
     23 H         144.6278  139.5315  159.9711 H       1  UNL1        0.1469
     24 C         142.7040  138.8336  159.2583 C.3     1  UNL1        0.1014
     25 C         141.2701  138.3981  159.3249 C.3     1  UNL1        0.0933
     26 N         141.3004  138.0748  157.8604 N.3     1  UNL1       -0.2697
     27 C         142.7342  138.5103  157.7939 C.3     1  UNL1        0.0933
     28 C         140.3079  137.5382  156.8720 C.3     1  UNL1        0.0751
     29 C         139.4760  138.4829  156.0562 C.3     1  UNL1        0.0554
     30 C         139.0367  139.7923  156.6412 C.3     1  UNL1        0.1947
     31 F         138.5187  139.8493  158.0478 F       1  UNL1       -0.2343
     32 C         140.7974  139.1637  164.0232 C.3     1  UNL1        0.1457
     33 C         140.4484  137.7246  163.7847 C.3     1  UNL1        0.3343
     34 F         141.1387  136.6459  164.5658 F       1  UNL1       -0.1969
     35 F         139.4090  137.3639  162.7650 F       1  UNL1       -0.1969
@<TRIPOS>BOND
     1     2     1    1
     2     2     3    1
     3     3     4    1
     4     4     5    2
     5     5     6    1
     6     6     7    2
     7     7     8    1
     8     8     9    2
     9     9    10    1
    10    10    11    2
    11    11    12    1
    12     5    13    1
    13    13    14    1
    14    13    16    1
    15    16    17   ar
    16    17    18   ar
    17    18    19   ar
    18    19    22    1
    19    22    24    1
    20    24    25    1
    21    25    26    1
    22    26    28    1
    23    28    29    1
    24    29    30    1
    25    30    31    1
    26    26    27    1
    27    19    20   ar
    28    20    21   ar
    29    13    15    1
    30    15    32    1
    31    32    33    1
    32    33    34    1
    33    33    35    1
    34    15     2    1
    35    12     4    1
    36    21    16   ar
    37    12     8    1
    38    27    24    1
    39    22    23    1
@<TRIPOS>MOLECULE
*****
 35 39 0 0 0
SMALL
GASTEIGER

@<TRIPOS>ATOM
      1 C         144.0342  141.9305  165.0650 C.3     1  UNL1        0.0177
      2 C         142.8509  141.4640  165.8601 C.3     1  UNL1        0.0623
      3 C         142.7644  141.7704  167.3260 C.3     1  UNL1        0.0384
      4 C         141.5812  141.3039  168.1212 C.2     1  UNL1       -0.0343
      5 C         140.4844  140.5310  167.4506 C.2     1  UNL1       -0.0111
      6 C         139.3012  140.0646  168.2457 C.2     1  UNL1       -0.0020
      7 C         139.2147  140.3709  169.7116 C.2     1  UNL1        0.0169
      8 C         140.3115  141.1438  170.3822 C.2     1  UNL1        0.0896
      9 N         140.5006  141.5922  171.8011 N.2     1  UNL1       -0.1520
     10 N         141.8007  142.3359  171.8827 N.2     1  UNL1       -0.1507
     11 C         142.4151  142.3470  170.5144 C.2     1  UNL1        0.1054
     12 C         141.4947  141.6103  169.5870 C.3     1  UNL1        0.1032
     13 C         140.5709  140.2247  165.9847 C.3     1  UNL1        0.0996
     14 C         139.2595  139.5732  166.3101 C.3     1  UNL1        0.0267
     15 N         141.7541  140.6911  165.1895 N.3     1  UNL1       -0.2634
     16 C         140.2019  139.6921  164.6319 C.ar    1  UNL1        0.0758
     17 C         140.4510  138.2506  164.2999 C.ar    1  UNL1        0.0176
     18 C         140.0820  137.7180  162.9470 C.ar    1  UNL1        0.0171
     19 C         139.4640  138.6268  161.9262 C.ar    1  UNL1        0.0641
     20 C         139.2150  140.0682  162.2581 C.ar    1  UNL1        0.1127
     21 N         139.5840  140.6008  163.6110 N.ar    1  UNL1       -0.2453
     22 N         139.0950  138.0941  160.5733 N.pl3   1  UNL1       -0.3305
     23 H         138.2419  137.6193  160.4472 H       1  UNL1        0.1469
     24 C         140.0260  138.2849  159.4127 C.3     1  UNL1        0.1014
     25 C         141.4818  138.6142  159.2638 C.3     1  UNL1        0.0933
     26 N         141.3425  138.5547  157.7714 N.3     1  UNL1       -0.2697
     27 C         139.8867  138.2255  157.9204 C.3     1  UNL1        0.0933
     28 C         142.2734  138.7455  156.6108 C.3     1  UNL1        0.0751
     29 C         143.1272  137.6061  156.1389 C.3     1  UNL1        0.0554
     30 C         142.9217  136.2313  156.7024 C.3     1  UNL1        0.1947
     31 F         144.0224  135.2153  156.6219 F       1  UNL1       -0.2343
     32 C         141.8406  140.3848  163.7236 C.3     1  UNL1        0.1457
     33 C         143.0918  139.7833  163.1557 C.3     1  UNL1        0.3343
     34 F         143.8593  138.7643  163.9448 F       1  UNL1       -0.1969
     35 F         143.5756  140.2007  161.7985 F       1  UNL1       -0.1969
@<TRIPOS>BOND
     1     2     1    1
     2     2     3    1
     3     3     4    1
     4     4     5    2
     5     5     6    1
     6     6     7    2
     7     7     8    1
     8     8     9    2
     9     9    10    1
    10    10    11    2
    11    11    12    1
    12     5    13    1
    13    13    14    1
    14    13    16    1
    15    16    17   ar
    16    17    18   ar
    17    18    19   ar
    18    19    22    1
    19    22    24    1
    20    24    25    1
    21    25    26    1
    22    26    28    1
    23    28    29    1
    24    29    30    1
    25    30    31    1
    26    26    27    1
    27    19    20   ar
    28    20    21   ar
    29    13    15    1
    30    15    32    1
    31    32    33    1
    32    33    34    1
    33    33    35    1
    34    15     2    1
    35    12     4    1
    36    21    16   ar
    37    12     8    1
    38    27    24    1
    39    22    23    1
@<TRIPOS>MOLECULE
*****
 35 39 0 0 0
SMALL
GASTEIGER

@<TRIPOS>ATOM
      1 C         139.7782  143.1540  164.6727 C.3     1  UNL1        0.0177
      2 C         140.4138  142.1905  165.6307 C.3     1  UNL1        0.0623
      3 C         140.2808  142.4054  167.1093 C.3     1  UNL1        0.0384
      4 C         140.9164  141.4420  168.0674 C.2     1  UNL1       -0.0343
      5 C         141.6849  140.2637  167.5469 C.2     1  UNL1       -0.0111
      6 C         142.3205  139.3003  168.5049 C.2     1  UNL1       -0.0020
      7 C         142.1875  139.5152  169.9836 C.2     1  UNL1        0.0169
      8 C         141.4190  140.6935  170.5040 C.2     1  UNL1        0.0896
      9 N         141.1204  141.1608  171.8977 N.2     1  UNL1       -0.1520
     10 N         140.3002  142.4130  171.8010 N.2     1  UNL1       -0.1507
     11 C         140.0920  142.7196  170.3475 C.2     1  UNL1        0.1054
     12 C         140.7834  141.6569  169.5459 C.3     1  UNL1        0.1032
     13 C         141.8179  140.0489  166.0683 C.3     1  UNL1        0.0996
     14 C         142.5932  138.8684  166.5739 C.3     1  UNL1        0.0267
     15 N         141.1824  141.0122  165.1103 N.3     1  UNL1       -0.2634
     16 C         142.2201  139.4240  164.7653 C.ar    1  UNL1        0.0758
     17 C         141.4279  138.2796  164.2062 C.ar    1  UNL1        0.0176
     18 C         141.8301  137.6547  162.9032 C.ar    1  UNL1        0.0171
     19 C         143.0245  138.1743  162.1593 C.ar    1  UNL1        0.0641
     20 C         143.8168  139.3187  162.7185 C.ar    1  UNL1        0.1127
     21 N         143.4145  139.9435  164.0215 N.ar    1  UNL1       -0.2453
     22 N         143.4268  137.5494  160.8563 N.pl3   1  UNL1       -0.3305
     23 H         144.2141  136.9598  160.8154 H       1  UNL1        0.1469
     24 C         142.6293  137.8229  159.6156 C.3     1  UNL1        0.1014
     25 C         141.3533  138.5516  159.3140 C.3     1  UNL1        0.0933
     26 N         141.5016  138.2096  157.8610 N.3     1  UNL1       -0.2697
     27 C         142.7775  137.4810  158.1627 C.3     1  UNL1        0.0933
     28 C         140.7041  138.4831  156.6204 C.3     1  UNL1        0.0751
     29 C         139.8496  137.4037  156.0248 C.3     1  UNL1        0.0554
     30 C         140.4894  136.2357  155.3346 C.3     1  UNL1        0.1947
     31 F         141.4355  135.3466  156.0859 F       1  UNL1       -0.2343
     32 C         141.3153  140.7974  163.6317 C.3     1  UNL1        0.1457
     33 C         140.1174  140.9463  162.7414 C.3     1  UNL1        0.3343
     34 F         138.8597  140.1864  163.0430 F       1  UNL1       -0.1969
     35 F         140.1770  141.8551  161.5495 F       1  UNL1       -0.1969
@<TRIPOS>BOND
     1     2     1    1
     2     2     3    1
     3     3     4    1
     4     4     5    2
     5     5     6    1
     6     6     7    2
     7     7     8    1
     8     8     9    2
     9     9    10    1
    10    10    11    2
    11    11    12    1
    12     5    13    1
    13    13    14    1
    14    13    16    1
    15    16    17   ar
    16    17    18   ar
    17    18    19   ar
    18    19    22    1
    19    22    24    1
    20    24    25    1
    21    25    26    1
    22    26    28    1
    23    28    29    1
    24    29    30    1
    25    30    31    1
    26    26    27    1
    27    19    20   ar
    28    20    21   ar
    29    13    15    1
    30    15    32    1
    31    32    33    1
    32    33    34    1
    33    33    35    1
    34    15     2    1
    35    12     4    1
    36    21    16   ar
    37    12     8    1
    38    27    24    1
    39    22    23    1
@<TRIPOS>MOLECULE
*****
 35 39 0 0 0
SMALL
GASTEIGER

@<TRIPOS>ATOM
      1 C         140.2429  143.6332  164.7942 C.3     1  UNL1        0.0177
      2 C         140.8210  142.6002  165.7155 C.3     1  UNL1        0.0623
      3 C         140.5706  142.6878  167.1919 C.3     1  UNL1        0.0384
      4 C         141.1487  141.6549  168.1133 C.2     1  UNL1       -0.0343
      5 C         141.9771  140.5344  167.5583 C.2     1  UNL1       -0.0111
      6 C         142.5552  139.5015  168.4796 C.2     1  UNL1       -0.0020
      7 C         142.3048  139.5891  169.9560 C.2     1  UNL1        0.0169
      8 C         141.4764  140.7097  170.5110 C.2     1  UNL1        0.0896
      9 N         141.0626  141.0538  171.9111 N.2     1  UNL1       -0.1520
     10 N         140.2288  142.2995  171.8550 N.2     1  UNL1       -0.1507
     11 C         140.1273  142.7252  170.4203 C.2     1  UNL1        0.1054
     12 C         140.8983  141.7426  169.5896 C.3     1  UNL1        0.1032
     13 C         142.2275  140.4468  166.0819 C.3     1  UNL1        0.0996
     14 C         142.9838  139.2375  166.5466 C.3     1  UNL1        0.0267
     15 N         141.6495  141.4796  165.1606 N.3     1  UNL1       -0.2634
     16 C         142.7405  139.9392  164.7669 C.ar    1  UNL1        0.0758
     17 C         143.9841  140.5278  164.1693 C.ar    1  UNL1        0.0176
     18 C         144.4971  140.0203  162.8544 C.ar    1  UNL1        0.0171
     19 C         143.7666  138.9241  162.1369 C.ar    1  UNL1        0.0641
     20 C         142.5231  138.3354  162.7345 C.ar    1  UNL1        0.1127
     21 N         142.0101  138.8431  164.0495 N.ar    1  UNL1       -0.2453
     22 N         144.2797  138.4165  160.8220 N.pl3   1  UNL1       -0.3305
     23 H         145.1579  137.9743  160.7738 H       1  UNL1        0.1469
     24 C         143.4545  138.5827  159.5804 C.3     1  UNL1        0.1014
     25 C         142.7171  137.6514  158.6644 C.3     1  UNL1        0.0933
     26 N         142.2876  138.8177  157.8245 N.3     1  UNL1       -0.2697
     27 C         143.0250  139.7488  158.7405 C.3     1  UNL1        0.0933
     28 C         141.4625  138.9838  156.5829 C.3     1  UNL1        0.0751
     29 C         140.0141  139.3590  156.6895 C.3     1  UNL1        0.0554
     30 C         139.3785  139.5210  158.0385 C.3     1  UNL1        0.1947
     31 F         139.3629  138.3724  159.0031 F       1  UNL1       -0.2343
     32 C         141.8999  141.3920  163.6841 C.3     1  UNL1        0.1457
     33 C         140.7749  141.6175  162.7180 C.3     1  UNL1        0.3343
     34 F         140.9554  142.5570  161.5626 F       1  UNL1       -0.1969
     35 F         139.4693  140.9035  162.9071 F       1  UNL1       -0.1969
@<TRIPOS>BOND
     1     2     1    1
     2     2     3    1
     3     3     4    1
     4     4     5    2
     5     5     6    1
     6     6     7    2
     7     7     8    1
     8     8     9    2
     9     9    10    1
    10    10    11    2
    11    11    12    1
    12     5    13    1
    13    13    14    1
    14    13    16    1
    15    16    17   ar
    16    17    18   ar
    17    18    19   ar
    18    19    22    1
    19    22    24    1
    20    24    25    1
    21    25    26    1
    22    26    28    1
    23    28    29    1
    24    29    30    1
    25    30    31    1
    26    26    27    1
    27    19    20   ar
    28    20    21   ar
    29    13    15    1
    30    15    32    1
    31    32    33    1
    32    33    34    1
    33    33    35    1
    34    15     2    1
    35    12     4    1
    36    21    16   ar
    37    12     8    1
    38    27    24    1
    39    22    23    1
@<TRIPOS>MOLECULE
*****
 35 39 0 0 0
SMALL
GASTEIGER

@<TRIPOS>ATOM
      1 C         138.4764  138.5584  165.8414 C.3     1  UNL1        0.0177
      2 C         139.6514  139.3931  166.2572 C.3     1  UNL1        0.0623
      3 C         139.7105  139.9679  167.6415 C.3     1  UNL1        0.0384
      4 C         140.8854  140.8025  168.0574 C.2     1  UNL1       -0.0343
      5 C         142.0012  141.0623  167.0891 C.2     1  UNL1       -0.0111
      6 C         143.1760  141.8969  167.5050 C.2     1  UNL1       -0.0020
      7 C         143.2352  142.4717  168.8893 C.2     1  UNL1        0.0169
      8 C         142.1195  142.2119  169.8576 C.2     1  UNL1        0.0896
      9 N         141.9024  142.6428  171.2779 N.2     1  UNL1       -0.1520
     10 N         140.5933  142.0745  171.7397 N.2     1  UNL1       -0.1507
     11 C         140.0013  141.2924  170.6049 C.2     1  UNL1        0.1054
     12 C         140.9446  141.3773  169.4416 C.3     1  UNL1        0.1032
     13 C         141.9420  140.4874  165.7049 C.3     1  UNL1        0.0996
     14 C         143.2547  141.2095  165.6312 C.3     1  UNL1        0.0267
     15 N         140.7671  139.6529  165.2890 N.3     1  UNL1       -0.2634
     16 C         142.3387  140.1634  164.2951 C.ar    1  UNL1        0.0758
     17 C         143.3338  139.0733  164.0277 C.ar    1  UNL1        0.0176
     18 C         143.7305  138.7492  162.6179 C.ar    1  UNL1        0.0171
     19 C         143.1322  139.5152  161.4754 C.ar    1  UNL1        0.0641
     20 C         142.1370  140.6053  161.7428 C.ar    1  UNL1        0.1127
     21 N         141.7404  140.9293  163.1527 N.ar    1  UNL1       -0.2453
     22 N         143.5289  139.1912  160.0656 N.pl3   1  UNL1       -0.3305
     23 H         143.8308  138.2828  159.8356 H       1  UNL1        0.1469
     24 C         143.4655  140.2512  159.0061 C.3     1  UNL1        0.1014
     25 C         144.1751  141.5500  158.7614 C.3     1  UNL1        0.0933
     26 N         143.3759  141.7502  157.5078 N.3     1  UNL1       -0.2697
     27 C         142.6665  140.4515  157.7527 C.3     1  UNL1        0.0933
     28 C         143.3126  142.8102  156.4485 C.3     1  UNL1        0.0751
     29 C         142.3522  143.9540  156.5882 C.3     1  UNL1        0.0554
     30 C         142.3292  144.7641  157.8504 C.3     1  UNL1        0.1947
     31 F         142.3235  146.2624  157.7800 F       1  UNL1       -0.2343
     32 C         140.7079  139.0780  163.9047 C.3     1  UNL1        0.1457
     33 C         140.3792  137.6278  163.7083 C.3     1  UNL1        0.3343
     34 F         139.2631  137.2296  162.7885 F       1  UNL1       -0.1969
     35 F         141.1665  136.5756  164.4317 F       1  UNL1       -0.1969
@<TRIPOS>BOND
     1     2     1    1
     2     2     3    1
     3     3     4    1
     4     4     5    2
     5     5     6    1
     6     6     7    2
     7     7     8    1
     8     8     9    2
     9     9    10    1
    10    10    11    2
    11    11    12    1
    12     5    13    1
    13    13    14    1
    14    13    16    1
    15    16    17   ar
    16    17    18   ar
    17    18    19   ar
    18    19    22    1
    19    22    24    1
    20    24    25    1
    21    25    26    1
    22    26    28    1
    23    28    29    1
    24    29    30    1
    25    30    31    1
    26    26    27    1
    27    19    20   ar
    28    20    21   ar
    29    13    15    1
    30    15    32    1
    31    32    33    1
    32    33    34    1
    33    33    35    1
    34    15     2    1
    35    12     4    1
    36    21    16   ar
    37    12     8    1
    38    27    24    1
    39    22    23    1
