@<TRIPOS>MOLECULE
*****
 26 29 0 0 0
SMALL
GASTEIGER

@<TRIPOS>ATOM
      1 C         140.9637  138.5239  162.3109 C.ar    1  UNL1        0.1917
      2 N         139.7714  137.6425  162.0838 N.ar    1  UNL1       -0.1268
      3 N         138.9633  137.6213  163.3473 N.ar    1  UNL1       -0.1316
      4 C         139.6562  138.4895  164.3554 C.ar    1  UNL1        0.1615
      5 N         140.8925  139.0474  163.7148 N.ar    1  UNL1       -0.2940
      6 C         141.7938  139.9599  164.4926 C.3     1  UNL1        0.1302
      7 C         141.4587  140.3146  165.9111 C.3     1  UNL1        0.1186
      8 N         140.2224  139.7568  166.5516 N.am    1  UNL1       -0.2688
      9 C         139.8873  140.1115  167.9700 C.2     1  UNL1        0.2515
     10 O         138.6510  139.5536  168.6106 O.2     1  UNL1       -0.2698
     11 C         139.3212  138.8442  165.7737 C.3     1  UNL1        0.1343
     12 C         138.0848  138.2863  166.4143 C.3     1  UNL1        0.0298
     13 C         140.7885  141.0240  168.7478 C.ar    1  UNL1        0.0811
     14 C         140.3701  142.4386  169.0194 C.ar    1  UNL1        0.0091
     15 C         141.2714  143.3511  169.7973 C.ar    1  UNL1        0.0299
     16 C         142.5911  142.8491  170.3035 C.ar    1  UNL1        0.1424
     17 F         143.4924  143.7616  171.0814 F       1  UNL1       -0.2041
     18 C         143.0095  141.4345  170.0319 C.ar    1  UNL1        0.0594
     19 C         142.1083  140.5219  169.2541 C.ar    1  UNL1        0.1467
     20 F         142.5268  139.1073  168.9824 F       1  UNL1       -0.2039
     21 C         143.6406  140.7353  158.3328 C.3     1  UNL1        0.0744
     22 C         143.2689  139.8449  159.4813 C.ar    1  UNL1        0.1481
     23 N         144.1160  138.7491  160.0574 N.ar    1  UNL1       -0.1929
     24 S         143.3555  138.1209  161.1875 S.2     1  UNL1        0.0369
     25 C         142.0385  138.8284  161.3098 C.ar    1  UNL1        0.1652
     26 N         141.9850  139.8939  160.2554 N.ar    1  UNL1       -0.2190
@<TRIPOS>BOND
     1    21    22    1
     2    22    23   ar
     3    23    24   ar
     4    24    25   ar
     5    25     1    1
     6     1     2   ar
     7     2     3   ar
     8     3     4   ar
     9     4     5   ar
    10     5     6    1
    11     6     7    1
    12     7     8    1
    13     8     9   am
    14     9    10    2
    15     9    13    1
    16    13    14   ar
    17    14    15   ar
    18    15    16   ar
    19    16    17    1
    20    16    18   ar
    21    18    19   ar
    22    19    20    1
    23     8    11    1
    24    11    12    1
    25    25    26   ar
    26    26    22   ar
    27     5     1   ar
    28    19    13   ar
    29    11     4    1
@<TRIPOS>MOLECULE
*****
 26 29 0 0 0
SMALL
GASTEIGER

@<TRIPOS>ATOM
      1 C         138.8455  142.5678  162.0641 C.ar    1  UNL1        0.1917
      2 N         137.8713  141.4884  161.6956 N.ar    1  UNL1       -0.1268
      3 N         137.7015  140.5913  162.8858 N.ar    1  UNL1       -0.1316
      4 C         138.5708  141.1163  163.9898 C.ar    1  UNL1        0.1615
      5 N         139.2778  142.3379  163.4819 N.ar    1  UNL1       -0.2940
      6 C         140.2239  143.0830  164.3761 C.3     1  UNL1        0.1302
      7 C         140.4630  142.6066  165.7783 C.3     1  UNL1        0.1186
      8 N         139.7560  141.3851  166.2861 N.am    1  UNL1       -0.2688
      9 C         139.9951  140.9087  167.6882 C.2     1  UNL1        0.2515
     10 O         139.2881  139.6871  168.1960 O.2     1  UNL1       -0.2698
     11 C         138.8099  140.6399  165.3918 C.3     1  UNL1        0.1343
     12 C         138.1028  139.4184  165.8997 C.3     1  UNL1        0.0298
     13 C         140.9412  141.6538  168.5824 C.ar    1  UNL1        0.0811
     14 C         140.4470  142.8106  169.3994 C.ar    1  UNL1        0.0091
     15 C         141.3931  143.5558  170.2936 C.ar    1  UNL1        0.0299
     16 C         142.8334  143.1441  170.3708 C.ar    1  UNL1        0.1424
     17 F         143.7796  143.8892  171.2650 F       1  UNL1       -0.2041
     18 C         143.3276  141.9873  169.5538 C.ar    1  UNL1        0.0594
     19 C         142.3815  141.2421  168.6596 C.ar    1  UNL1        0.1467
     20 F         142.8757  140.0853  167.8426 F       1  UNL1       -0.2039
     21 C         140.3258  145.2930  157.7906 C.3     1  UNL1        0.0744
     22 C         139.9869  144.9342  159.2071 C.ar    1  UNL1        0.1481
     23 N         140.0447  145.8571  160.3882 N.ar    1  UNL1       -0.1929
     24 S         139.6242  145.0828  161.6023 S.2     1  UNL1        0.0369
     25 C         139.3064  143.6816  161.1714 C.ar    1  UNL1        0.1652
     26 N         139.5306  143.5898  159.6911 N.ar    1  UNL1       -0.2190
@<TRIPOS>BOND
     1    21    22    1
     2    22    23   ar
     3    23    24   ar
     4    24    25   ar
     5    25     1    1
     6     1     2   ar
     7     2     3   ar
     8     3     4   ar
     9     4     5   ar
    10     5     6    1
    11     6     7    1
    12     7     8    1
    13     8     9   am
    14     9    10    2
    15     9    13    1
    16    13    14   ar
    17    14    15   ar
    18    15    16   ar
    19    16    17    1
    20    16    18   ar
    21    18    19   ar
    22    19    20    1
    23     8    11    1
    24    11    12    1
    25    25    26   ar
    26    26    22   ar
    27     5     1   ar
    28    19    13   ar
    29    11     4    1
@<TRIPOS>MOLECULE
*****
 26 29 0 0 0
SMALL
GASTEIGER

@<TRIPOS>ATOM
      1 C         143.2197  140.8215  162.0757 C.ar    1  UNL1        0.1917
      2 N         144.1036  139.6434  161.7916 N.ar    1  UNL1       -0.1268
      3 N         144.3084  138.8971  163.0765 N.ar    1  UNL1       -0.1316
      4 C         143.5511  139.6139  164.1548 C.ar    1  UNL1        0.1615
      5 N         142.8782  140.8033  163.5362 N.ar    1  UNL1       -0.2940
      6 C         142.0415  141.7160  164.3828 C.3     1  UNL1        0.1302
      7 C         141.8776  141.4394  165.8480 C.3     1  UNL1        0.1186
      8 N         142.5505  140.2500  166.4665 N.am    1  UNL1       -0.2688
      9 C         142.3867  139.9734  167.9316 C.2     1  UNL1        0.2515
     10 O         143.0596  138.7840  168.5501 O.2     1  UNL1       -0.2698
     11 C         143.3873  139.3372  165.6199 C.3     1  UNL1        0.1343
     12 C         144.0602  138.1478  166.2384 C.3     1  UNL1        0.0298
     13 C         141.5500  140.8861  168.7782 C.ar    1  UNL1        0.0811
     14 C         140.1635  140.4766  169.1782 C.ar    1  UNL1        0.0091
     15 C         139.3268  141.3894  170.0249 C.ar    1  UNL1        0.0299
     16 C         139.8766  142.7117  170.4715 C.ar    1  UNL1        0.1424
     17 F         139.0398  143.6245  171.3181 F       1  UNL1       -0.2041
     18 C         141.2630  143.1211  170.0714 C.ar    1  UNL1        0.0594
     19 C         142.0998  142.2084  169.2249 C.ar    1  UNL1        0.1467
     20 F         143.4862  142.6178  168.8248 F       1  UNL1       -0.2039
     21 C         140.6417  143.1365  158.0913 C.3     1  UNL1        0.0744
     22 C         141.5732  142.9033  159.2436 C.ar    1  UNL1        0.1481
     23 N         142.5229  143.9073  159.8267 N.ar    1  UNL1       -0.1929
     24 S         143.2553  143.2497  160.9587 S.2     1  UNL1        0.0369
     25 C         142.7582  141.8392  161.0751 C.ar    1  UNL1        0.1652
     26 N         141.7187  141.6251  160.0151 N.ar    1  UNL1       -0.2190
@<TRIPOS>BOND
     1    21    22    1
     2    22    23   ar
     3    23    24   ar
     4    24    25   ar
     5    25     1    1
     6     1     2   ar
     7     2     3   ar
     8     3     4   ar
     9     4     5   ar
    10     5     6    1
    11     6     7    1
    12     7     8    1
    13     8     9   am
    14     9    10    2
    15     9    13    1
    16    13    14   ar
    17    14    15   ar
    18    15    16   ar
    19    16    17    1
    20    16    18   ar
    21    18    19   ar
    22    19    20    1
    23     8    11    1
    24    11    12    1
    25    25    26   ar
    26    26    22   ar
    27     5     1   ar
    28    19    13   ar
    29    11     4    1
@<TRIPOS>MOLECULE
*****
 26 29 0 0 0
SMALL
GASTEIGER

@<TRIPOS>ATOM
      1 C         140.5562  139.0282  162.1473 C.ar    1  UNL1        0.1917
      2 N         141.6226  138.0320  161.8003 N.ar    1  UNL1       -0.1268
      3 N         142.4555  137.7988  163.0258 N.ar    1  UNL1       -0.1316
      4 C         141.9038  138.6509  164.1302 C.ar    1  UNL1        0.1615
      5 N         140.7300  139.4107  163.5872 N.ar    1  UNL1       -0.2940
      6 C         139.9711  140.3526  164.4742 C.3     1  UNL1        0.1302
      7 C         140.3859  140.5348  165.9041 C.3     1  UNL1        0.1186
      8 N         141.5598  139.7750  166.4471 N.am    1  UNL1       -0.2688
      9 C         141.9747  139.9572  167.8770 C.2     1  UNL1        0.2515
     10 O         143.1485  139.1974  168.4200 O.2     1  UNL1       -0.2698
     11 C         142.3187  138.8330  165.5601 C.3     1  UNL1        0.1343
     12 C         143.4926  138.0732  166.1031 C.3     1  UNL1        0.0298
     13 C         141.2157  140.8991  168.7639 C.ar    1  UNL1        0.0811
     14 C         139.9530  140.4450  169.4342 C.ar    1  UNL1        0.0091
     15 C         139.1940  141.3870  170.3211 C.ar    1  UNL1        0.0299
     16 C         139.6978  142.7831  170.5378 C.ar    1  UNL1        0.1424
     17 F         138.9389  143.7252  171.4248 F       1  UNL1       -0.2041
     18 C         140.9606  143.2373  169.8676 C.ar    1  UNL1        0.0594
     19 C         141.7195  142.2953  168.9806 C.ar    1  UNL1        0.1467
     20 F         142.9823  142.7495  168.3104 F       1  UNL1       -0.2039
     21 C         138.1268  141.7516  158.3313 C.3     1  UNL1        0.0744
     22 C         138.3846  140.8021  159.4635 C.ar    1  UNL1        0.1481
     23 N         137.3708  139.9052  160.1101 N.ar    1  UNL1       -0.1929
     24 S         138.0610  139.1315  161.1942 S.2     1  UNL1        0.0369
     25 C         139.5012  139.5502  161.2175 C.ar    1  UNL1        0.1652
     26 N         139.7012  140.5827  160.1480 N.ar    1  UNL1       -0.2190
@<TRIPOS>BOND
     1    21    22    1
     2    22    23   ar
     3    23    24   ar
     4    24    25   ar
     5    25     1    1
     6     1     2   ar
     7     2     3   ar
     8     3     4   ar
     9     4     5   ar
    10     5     6    1
    11     6     7    1
    12     7     8    1
    13     8     9   am
    14     9    10    2
    15     9    13    1
    16    13    14   ar
    17    14    15   ar
    18    15    16   ar
    19    16    17    1
    20    16    18   ar
    21    18    19   ar
    22    19    20    1
    23     8    11    1
    24    11    12    1
    25    25    26   ar
    26    26    22   ar
    27     5     1   ar
    28    19    13   ar
    29    11     4    1
@<TRIPOS>MOLECULE
*****
 26 29 0 0 0
SMALL
GASTEIGER

@<TRIPOS>ATOM
      1 C         142.6644  143.3786  160.6842 C.ar    1  UNL1        0.1917
      2 N         144.1479  143.2671  160.4928 N.ar    1  UNL1       -0.1268
      3 N         144.6596  142.2202  161.4373 N.ar    1  UNL1       -0.1316
      4 C         143.4924  141.6847  162.2124 C.ar    1  UNL1        0.1615
      5 N         142.2592  142.4007  161.7470 N.ar    1  UNL1       -0.2940
      6 C         140.9267  142.0696  162.3510 C.3     1  UNL1        0.1302
      7 C         140.8274  141.0225  163.4205 C.3     1  UNL1        0.1186
      8 N         142.0606  140.3066  163.8860 N.am    1  UNL1       -0.2688
      9 C         141.9613  139.2596  164.9555 C.2     1  UNL1        0.2515
     10 O         143.1945  138.5436  165.4209 O.2     1  UNL1       -0.2698
     11 C         143.3931  140.6377  163.2819 C.3     1  UNL1        0.1343
     12 C         144.6263  139.9217  163.7474 C.3     1  UNL1        0.0298
     13 C         140.6288  138.9285  165.5595 C.ar    1  UNL1        0.0811
     14 C         139.8040  137.8122  164.9907 C.ar    1  UNL1        0.0091
     15 C         138.4715  137.4812  165.5948 C.ar    1  UNL1        0.0299
     16 C         137.9638  138.2664  166.7676 C.ar    1  UNL1        0.1424
     17 F         136.6313  137.9354  167.3717 F       1  UNL1       -0.2041
     18 C         138.7886  139.3828  167.3364 C.ar    1  UNL1        0.0594
     19 C         140.1211  139.7138  166.7324 C.ar    1  UNL1        0.1467
     20 F         140.9459  140.8301  167.3012 F       1  UNL1       -0.2039
     21 C         140.3980  146.1705  156.8177 C.3     1  UNL1        0.0744
     22 C         140.7053  145.5887  158.1657 C.ar    1  UNL1        0.1481
     23 N         139.9652  145.8745  159.4388 N.ar    1  UNL1       -0.1929
     24 S         140.6091  145.0813  160.5372 S.2     1  UNL1        0.0369
     25 C         141.7470  144.3054  159.9429 C.ar    1  UNL1        0.1652
     26 N         141.8064  144.6189  158.4773 N.ar    1  UNL1       -0.2190
@<TRIPOS>BOND
     1    21    22    1
     2    22    23   ar
     3    23    24   ar
     4    24    25   ar
     5    25     1    1
     6     1     2   ar
     7     2     3   ar
     8     3     4   ar
     9     4     5   ar
    10     5     6    1
    11     6     7    1
    12     7     8    1
    13     8     9   am
    14     9    10    2
    15     9    13    1
    16    13    14   ar
    17    14    15   ar
    18    15    16   ar
    19    16    17    1
    20    16    18   ar
    21    18    19   ar
    22    19    20    1
    23     8    11    1
    24    11    12    1
    25    25    26   ar
    26    26    22   ar
    27     5     1   ar
    28    19    13   ar
    29    11     4    1
@<TRIPOS>MOLECULE
*****
 26 29 0 0 0
SMALL
GASTEIGER

@<TRIPOS>ATOM
      1 C         141.7886  143.3248  161.2233 C.ar    1  UNL1        0.1917
      2 N         143.1397  143.9191  160.9566 N.ar    1  UNL1       -0.1268
      3 N         143.8936  143.9567  162.2528 N.ar    1  UNL1       -0.1316
      4 C         143.0084  143.3855  163.3206 C.ar    1  UNL1        0.1615
      5 N         141.7074  142.9950  162.6843 N.ar    1  UNL1       -0.2940
      6 C         140.6169  142.3896  163.5175 C.3     1  UNL1        0.1302
      7 C         140.8274  142.1747  164.9871 C.3     1  UNL1        0.1186
      8 N         142.1284  142.5652  165.6234 N.am    1  UNL1       -0.2688
      9 C         142.3389  142.3503  167.0929 C.2     1  UNL1        0.2515
     10 O         143.6399  142.7408  167.7292 O.2     1  UNL1       -0.2698
     11 C         143.2189  143.1706  164.7901 C.3     1  UNL1        0.1343
     12 C         144.5199  143.5612  165.4264 C.3     1  UNL1        0.0298
     13 C         141.2484  141.7449  167.9261 C.ar    1  UNL1        0.0811
     14 C         140.6787  140.4069  167.5584 C.ar    1  UNL1        0.0091
     15 C         139.5882  139.8014  168.3917 C.ar    1  UNL1        0.0299
     16 C         139.0674  140.5340  169.5925 C.ar    1  UNL1        0.1424
     17 F         137.9768  139.9286  170.4258 F       1  UNL1       -0.2041
     18 C         139.6371  141.8720  169.9602 C.ar    1  UNL1        0.0594
     19 C         140.7276  142.4775  169.1270 C.ar    1  UNL1        0.1467
     20 F         141.2973  143.8155  169.4946 F       1  UNL1       -0.2039
     21 C         138.0651  141.0092  158.2814 C.3     1  UNL1        0.0744
     22 C         138.9968  142.0353  158.8551 C.ar    1  UNL1        0.1481
     23 N         139.0947  143.4713  158.4327 N.ar    1  UNL1       -0.1929
     24 S         140.1526  144.1291  159.2684 S.2     1  UNL1        0.0369
     25 C         140.7082  143.0997  160.2073 C.ar    1  UNL1        0.1652
     26 N         139.9939  141.8057  159.9519 N.ar    1  UNL1       -0.2190
@<TRIPOS>BOND
     1    21    22    1
     2    22    23   ar
     3    23    24   ar
     4    24    25   ar
     5    25     1    1
     6     1     2   ar
     7     2     3   ar
     8     3     4   ar
     9     4     5   ar
    10     5     6    1
    11     6     7    1
    12     7     8    1
    13     8     9   am
    14     9    10    2
    15     9    13    1
    16    13    14   ar
    17    14    15   ar
    18    15    16   ar
    19    16    17    1
    20    16    18   ar
    21    18    19   ar
    22    19    20    1
    23     8    11    1
    24    11    12    1
    25    25    26   ar
    26    26    22   ar
    27     5     1   ar
    28    19    13   ar
    29    11     4    1
@<TRIPOS>MOLECULE
*****
 26 29 0 0 0
SMALL
GASTEIGER

@<TRIPOS>ATOM
      1 C         141.2247  141.2402  167.4521 C.ar    1  UNL1        0.1917
      2 N         142.4236  141.5212  168.3086 N.ar    1  UNL1       -0.1268
      3 N         143.3824  142.3500  167.5061 N.ar    1  UNL1       -0.1316
      4 C         142.7760  142.5812  166.1538 C.ar    1  UNL1        0.1615
      5 N         141.4424  141.8953  166.1204 N.ar    1  UNL1       -0.2940
      6 C         140.5987  141.9558  164.8817 C.3     1  UNL1        0.1302
      7 C         141.0885  142.7023  163.6763 C.3     1  UNL1        0.1186
      8 N         142.4220  143.3883  163.7097 N.am    1  UNL1       -0.2688
      9 C         142.9119  144.1347  162.5044 C.2     1  UNL1        0.2515
     10 O         144.2454  144.8207  162.5378 O.2     1  UNL1       -0.2698
     11 C         143.2658  143.3277  164.9485 C.3     1  UNL1        0.1343
     12 C         144.5993  144.0136  164.9819 C.3     1  UNL1        0.0298
     13 C         142.0681  144.1953  161.2657 C.ar    1  UNL1        0.0811
     14 C         142.3292  143.2468  160.1333 C.ar    1  UNL1        0.0091
     15 C         141.4854  143.3074  158.8946 C.ar    1  UNL1        0.0299
     16 C         140.3806  144.3164  158.7883 C.ar    1  UNL1        0.1424
     17 F         139.5368  144.3769  157.5495 F       1  UNL1       -0.2041
     18 C         140.1196  145.2648  159.9206 C.ar    1  UNL1        0.0594
     19 C         140.9633  145.2043  161.1593 C.ar    1  UNL1        0.1467
     20 F         140.7023  146.1528  162.2917 F       1  UNL1       -0.2039
     21 C         137.1017  137.9449  167.3026 C.3     1  UNL1        0.0744
     22 C         138.1244  138.9291  167.7876 C.ar    1  UNL1        0.1481
     23 N         138.2055  139.5075  169.1692 N.ar    1  UNL1       -0.1929
     24 S         139.3769  140.4437  169.2117 S.2     1  UNL1        0.0369
     25 C         140.0195  140.4438  167.8564 C.ar    1  UNL1        0.1652
     26 N         139.2455  139.5078  166.9762 N.ar    1  UNL1       -0.2190
@<TRIPOS>BOND
     1    21    22    1
     2    22    23   ar
     3    23    24   ar
     4    24    25   ar
     5    25     1    1
     6     1     2   ar
     7     2     3   ar
     8     3     4   ar
     9     4     5   ar
    10     5     6    1
    11     6     7    1
    12     7     8    1
    13     8     9   am
    14     9    10    2
    15     9    13    1
    16    13    14   ar
    17    14    15   ar
    18    15    16   ar
    19    16    17    1
    20    16    18   ar
    21    18    19   ar
    22    19    20    1
    23     8    11    1
    24    11    12    1
    25    25    26   ar
    26    26    22   ar
    27     5     1   ar
    28    19    13   ar
    29    11     4    1
@<TRIPOS>MOLECULE
*****
 26 29 0 0 0
SMALL
GASTEIGER

@<TRIPOS>ATOM
      1 C         139.1927  139.8376  167.6011 C.ar    1  UNL1        0.1917
      2 N         138.1104  138.8039  167.7009 N.ar    1  UNL1       -0.1268
      3 N         137.9661  138.1528  166.3572 N.ar    1  UNL1       -0.1316
      4 C         138.9592  138.7842  165.4271 C.ar    1  UNL1        0.1615
      5 N         139.7173  139.8255  166.1959 N.ar    1  UNL1       -0.2940
      6 C         140.7873  140.6280  165.5171 C.3     1  UNL1        0.1302
      7 C         141.0993  140.3893  164.0694 C.3     1  UNL1        0.1186
      8 N         140.3412  139.3481  163.3006 N.am    1  UNL1       -0.2688
      9 C         140.6532  139.1093  161.8530 C.2     1  UNL1        0.2515
     10 O         139.8951  138.0681  161.0842 O.2     1  UNL1       -0.2698
     11 C         139.2711  138.5455  163.9795 C.3     1  UNL1        0.1343
     12 C         138.5130  137.5042  163.2107 C.3     1  UNL1        0.0298
     13 C         141.7232  139.9119  161.1741 C.ar    1  UNL1        0.0811
     14 C         141.3705  141.1888  160.4705 C.ar    1  UNL1        0.0091
     15 C         142.4406  141.9914  159.7916 C.ar    1  UNL1        0.0299
     16 C         143.8634  141.5170  159.8164 C.ar    1  UNL1        0.1424
     17 F         144.9335  142.3196  159.1376 F       1  UNL1       -0.2041
     18 C         144.2161  140.2401  160.5201 C.ar    1  UNL1        0.0594
     19 C         143.1461  139.4376  161.1989 C.ar    1  UNL1        0.1467
     20 F         143.4988  138.1607  161.9025 F       1  UNL1       -0.2039
     21 C         140.9928  144.0336  170.2533 C.3     1  UNL1        0.0744
     22 C         140.4945  142.6560  169.9307 C.ar    1  UNL1        0.1481
     23 N         140.2999  141.5370  170.9105 N.ar    1  UNL1       -0.1929
     24 S         139.7885  140.3450  170.1570 S.2     1  UNL1        0.0369
     25 C         139.6671  140.7273  168.7117 C.ar    1  UNL1        0.1652
     26 N         140.1035  142.1556  168.5718 N.ar    1  UNL1       -0.2190
@<TRIPOS>BOND
     1    21    22    1
     2    22    23   ar
     3    23    24   ar
     4    24    25   ar
     5    25     1    1
     6     1     2   ar
     7     2     3   ar
     8     3     4   ar
     9     4     5   ar
    10     5     6    1
    11     6     7    1
    12     7     8    1
    13     8     9   am
    14     9    10    2
    15     9    13    1
    16    13    14   ar
    17    14    15   ar
    18    15    16   ar
    19    16    17    1
    20    16    18   ar
    21    18    19   ar
    22    19    20    1
    23     8    11    1
    24    11    12    1
    25    25    26   ar
    26    26    22   ar
    27     5     1   ar
    28    19    13   ar
    29    11     4    1
@<TRIPOS>MOLECULE
*****
 26 29 0 0 0
SMALL
GASTEIGER

@<TRIPOS>ATOM
      1 C         140.1679  140.8394  168.4069 C.ar    1  UNL1        0.1917
      2 N         139.0429  139.9950  168.9278 N.ar    1  UNL1       -0.1268
      3 N         138.6167  139.0636  167.8320 N.ar    1  UNL1       -0.1316
      4 C         139.4782  139.3324  166.6339 C.ar    1  UNL1        0.1615
      5 N         140.4370  140.4299  166.9892 N.ar    1  UNL1       -0.2940
      6 C         141.4311  140.9145  165.9759 C.3     1  UNL1        0.1302
      7 C         141.4665  140.3017  164.6072 C.3     1  UNL1        0.1186
      8 N         140.5077  139.2042  164.2519 N.am    1  UNL1       -0.2688
      9 C         140.5431  138.5913  162.8833 C.2     1  UNL1        0.2515
     10 O         139.5843  137.4938  162.5280 O.2     1  UNL1       -0.2698
     11 C         139.5136  138.7195  165.2653 C.3     1  UNL1        0.1343
     12 C         138.5548  137.6220  164.9099 C.3     1  UNL1        0.0298
     13 C         141.5372  139.0760  161.8700 C.ar    1  UNL1        0.0811
     14 C         142.8769  138.4111  161.7561 C.ar    1  UNL1        0.0091
     15 C         143.8711  138.8958  160.7427 C.ar    1  UNL1        0.0299
     16 C         143.5254  140.0454  159.8433 C.ar    1  UNL1        0.1424
     17 F         144.5195  140.5301  158.8300 F       1  UNL1       -0.2041
     18 C         142.1857  140.7103  159.9572 C.ar    1  UNL1        0.0594
     19 C         141.1916  140.2256  160.9705 C.ar    1  UNL1        0.1467
     20 F         139.8518  140.8906  161.0844 F       1  UNL1       -0.2039
     21 C         143.9874  143.5501  170.8450 C.3     1  UNL1        0.0744
     22 C         142.6518  143.1520  170.2904 C.ar    1  UNL1        0.1481
     23 N         141.3817  143.9430  170.3970 N.ar    1  UNL1       -0.1929
     24 S         140.2966  143.1729  169.7043 S.2     1  UNL1        0.0369
     25 C         140.8961  141.9061  169.1698 C.ar    1  UNL1        0.1652
     26 N         142.3517  141.8931  169.5320 N.ar    1  UNL1       -0.2190
@<TRIPOS>BOND
     1    21    22    1
     2    22    23   ar
     3    23    24   ar
     4    24    25   ar
     5    25     1    1
     6     1     2   ar
     7     2     3   ar
     8     3     4   ar
     9     4     5   ar
    10     5     6    1
    11     6     7    1
    12     7     8    1
    13     8     9   am
    14     9    10    2
    15     9    13    1
    16    13    14   ar
    17    14    15   ar
    18    15    16   ar
    19    16    17    1
    20    16    18   ar
    21    18    19   ar
    22    19    20    1
    23     8    11    1
    24    11    12    1
    25    25    26   ar
    26    26    22   ar
    27     5     1   ar
    28    19    13   ar
    29    11     4    1
