@<TRIPOS>MOLECULE
*****
 28 31 0 0 0
SMALL
GASTEIGER

@<TRIPOS>ATOM
      1 C         143.1560  138.5025  160.7962 C.ar    1  UNL1        0.2261
      2 N         144.0006  139.3291  159.8723 N.ar    1  UNL1       -0.1114
      3 N         143.6657  138.9376  158.4635 N.ar    1  UNL1       -0.1056
      4 C         142.6143  137.8692  158.5167 C.ar    1  UNL1        0.2673
      5 O         142.2993  137.6003  159.9585 O.2     1  UNL1       -0.4182
      6 C         141.9878  137.1890  157.3356 C.ar    1  UNL1        0.1376
      7 C         140.8841  137.8662  156.5786 C.ar    1  UNL1        0.0240
      8 C         140.2577  137.1860  155.3976 C.ar    1  UNL1        0.0032
      9 C         140.7349  135.8286  154.9736 C.ar    1  UNL1        0.0192
     10 C         141.8387  135.1514  155.7307 C.ar    1  UNL1        0.0842
     11 C         142.5132  133.8241  155.5486 C.ar    1  UNL1        0.0356
     12 C         143.5566  133.6839  156.6172 C.ar    1  UNL1        0.0801
     13 N         143.5269  134.9247  157.4596 N.ar    1  UNL1       -0.1694
     14 N         142.4651  135.8316  156.9117 N.ar    1  UNL1       -0.2253
     15 C         144.4694  132.5092  156.8095 C.3     1  UNL1        0.0421
     16 C         145.3102  132.4076  158.0475 C.3     1  UNL1        0.0064
     17 C         144.5413  131.4362  155.7638 C.3     1  UNL1        0.0064
     18 N         143.1873  138.6958  165.2919 N.3     1  UNL1       -0.2726
     19 C         144.3025  139.3201  164.5067 C.3     1  UNL1        0.0726
     20 C         144.2921  139.2557  163.0081 C.3     1  UNL1        0.0266
     21 C         143.1665  138.5670  162.2948 C.3     1  UNL1        0.0810
     22 C         142.0513  137.9427  163.0801 C.3     1  UNL1        0.0266
     23 C         142.0617  138.0071  164.5786 C.3     1  UNL1        0.0726
     24 C         143.1977  138.7603  166.7905 C.3     1  UNL1        0.0747
     25 C         142.3408  139.7636  167.5040 C.3     1  UNL1        0.0494
     26 C         142.0459  139.5940  168.9649 C.3     1  UNL1        0.1437
     27 C         139.5371  140.1356  168.5619 C.3     1  UNL1        0.1741
     28 O         140.6270  139.6144  169.4510 O.3     1  UNL1       -0.3511
@<TRIPOS>BOND
     1    27    28    1
     2    28    26    1
     3    26    25    1
     4    25    24    1
     5    24    18    1
     6    18    19    1
     7    19    20    1
     8    20    21    1
     9    21     1    1
    10     1     2   ar
    11     2     3   ar
    12     3     4   ar
    13     4     6    1
    14     6     7   ar
    15     7     8   ar
    16     8     9   ar
    17     9    10   ar
    18    10    11   ar
    19    11    12   ar
    20    12    15    1
    21    15    16    1
    22    15    17    1
    23    12    13   ar
    24    13    14   ar
    25     4     5   ar
    26    21    22    1
    27    22    23    1
    28    23    18    1
    29     5     1   ar
    30    14     6   ar
    31    14    10   ar
@<TRIPOS>MOLECULE
*****
 28 31 0 0 0
SMALL
GASTEIGER

@<TRIPOS>ATOM
      1 C         143.2009  138.5300  160.5447 C.ar    1  UNL1        0.2261
      2 N         143.9627  139.4331  159.6205 N.ar    1  UNL1       -0.1114
      3 N         143.6479  139.0265  158.2114 N.ar    1  UNL1       -0.1056
      4 C         142.6916  137.8722  158.2646 C.ar    1  UNL1        0.2673
      5 O         142.4153  137.5653  159.7067 O.2     1  UNL1       -0.4182
      6 C         142.1130  137.1512  157.0833 C.ar    1  UNL1        0.1376
      7 C         141.2063  137.8756  156.1329 C.ar    1  UNL1        0.0240
      8 C         140.6278  137.1547  154.9516 C.ar    1  UNL1        0.0032
      9 C         140.9560  135.7094  154.7207 C.ar    1  UNL1        0.0192
     10 C         141.8626  134.9850  155.6710 C.ar    1  UNL1        0.0842
     11 C         142.3619  133.5708  155.7010 C.ar    1  UNL1        0.0356
     12 C         143.2490  133.4178  156.9009 C.ar    1  UNL1        0.0801
     13 N         143.2980  134.7373  157.6125 N.ar    1  UNL1       -0.1694
     14 N         142.4411  135.7059  156.8523 N.ar    1  UNL1       -0.2253
     15 C         143.9619  132.1650  157.3162 C.3     1  UNL1        0.0421
     16 C         143.3195  130.8278  157.0944 C.3     1  UNL1        0.0064
     17 C         145.3172  132.2495  157.9534 C.3     1  UNL1        0.0064
     18 N         143.2618  138.6871  165.0415 N.3     1  UNL1       -0.2726
     19 C         142.1362  137.9962  164.3304 C.3     1  UNL1        0.0726
     20 C         142.1159  137.9438  162.8314 C.3     1  UNL1        0.0266
     21 C         143.2212  138.5823  162.0436 C.3     1  UNL1        0.0810
     22 C         144.3468  139.2732  162.7547 C.3     1  UNL1        0.0266
     23 C         144.3671  139.3256  164.2537 C.3     1  UNL1        0.0726
     24 C         143.2821  138.7395  166.5404 C.3     1  UNL1        0.0747
     25 C         142.2868  139.5882  167.2748 C.3     1  UNL1        0.0494
     26 C         142.0261  140.9957  166.8267 C.3     1  UNL1        0.1437
     27 C         143.6069  142.7010  165.6678 C.3     1  UNL1        0.1741
     28 O         143.1148  142.0240  166.9125 O.3     1  UNL1       -0.3511
@<TRIPOS>BOND
     1    27    28    1
     2    28    26    1
     3    26    25    1
     4    25    24    1
     5    24    18    1
     6    18    19    1
     7    19    20    1
     8    20    21    1
     9    21     1    1
    10     1     2   ar
    11     2     3   ar
    12     3     4   ar
    13     4     6    1
    14     6     7   ar
    15     7     8   ar
    16     8     9   ar
    17     9    10   ar
    18    10    11   ar
    19    11    12   ar
    20    12    15    1
    21    15    16    1
    22    15    17    1
    23    12    13   ar
    24    13    14   ar
    25     4     5   ar
    26    21    22    1
    27    22    23    1
    28    23    18    1
    29     5     1   ar
    30    14     6   ar
    31    14    10   ar
@<TRIPOS>MOLECULE
*****
 28 31 0 0 0
SMALL
GASTEIGER

@<TRIPOS>ATOM
      1 C         143.0161  143.6203  163.8536 C.ar    1  UNL1        0.2261
      2 N         144.4048  143.8464  164.3737 N.ar    1  UNL1       -0.1114
      3 N         144.4657  143.3200  165.7770 N.ar    1  UNL1       -0.1056
      4 C         143.1146  142.7686  166.1242 C.ar    1  UNL1        0.2673
      5 O         142.2188  142.9542  164.9355 O.2     1  UNL1       -0.4182
      6 C         142.7274  142.1416  167.4307 C.ar    1  UNL1        0.1376
      7 C         143.5492  142.3989  168.6589 C.ar    1  UNL1        0.0240
      8 C         143.1619  141.7719  169.9653 C.ar    1  UNL1        0.0032
      9 C         141.9528  140.8876  170.0437 C.ar    1  UNL1        0.0192
     10 C         141.1310  140.6303  168.8155 C.ar    1  UNL1        0.0842
     11 C         139.8962  139.8098  168.5878 C.ar    1  UNL1        0.0356
     12 C         139.5203  139.9296  167.1406 C.ar    1  UNL1        0.0801
     13 N         140.5228  140.8242  166.4739 N.ar    1  UNL1       -0.1694
     14 N         141.5183  141.2573  167.5091 N.ar    1  UNL1       -0.2253
     15 C         138.3476  139.2705  166.4768 C.3     1  UNL1        0.0421
     16 C         138.0560  139.5394  165.0302 C.3     1  UNL1        0.0064
     17 C         137.4667  138.3425  167.2596 C.3     1  UNL1        0.0064
     18 N         141.5073  144.7433  159.7656 N.3     1  UNL1       -0.2726
     19 C         142.6230  143.7507  159.9067 C.3     1  UNL1        0.0726
     20 C         143.1260  143.3764  161.2693 C.3     1  UNL1        0.0266
     21 C         142.5132  143.9946  162.4909 C.3     1  UNL1        0.0810
     22 C         141.3974  144.9872  162.3499 C.3     1  UNL1        0.0266
     23 C         140.8945  145.3615  160.9872 C.3     1  UNL1        0.0726
     24 C         141.0043  145.1176  158.4029 C.3     1  UNL1        0.0747
     25 C         140.0665  144.2029  157.6723 C.3     1  UNL1        0.0494
     26 C         139.4948  143.0033  158.3680 C.3     1  UNL1        0.1437
     27 C         138.6754  142.3969  160.7577 C.3     1  UNL1        0.1741
     28 O         138.5158  143.1829  159.4902 O.3     1  UNL1       -0.3511
@<TRIPOS>BOND
     1    27    28    1
     2    28    26    1
     3    26    25    1
     4    25    24    1
     5    24    18    1
     6    18    19    1
     7    19    20    1
     8    20    21    1
     9    21     1    1
    10     1     2   ar
    11     2     3   ar
    12     3     4   ar
    13     4     6    1
    14     6     7   ar
    15     7     8   ar
    16     8     9   ar
    17     9    10   ar
    18    10    11   ar
    19    11    12   ar
    20    12    15    1
    21    15    16    1
    22    15    17    1
    23    12    13   ar
    24    13    14   ar
    25     4     5   ar
    26    21    22    1
    27    22    23    1
    28    23    18    1
    29     5     1   ar
    30    14     6   ar
    31    14    10   ar
@<TRIPOS>MOLECULE
*****
 28 31 0 0 0
SMALL
GASTEIGER

@<TRIPOS>ATOM
      1 C         138.4873  139.4707  159.7058 C.ar    1  UNL1        0.2261
      2 N         139.3753  138.7529  158.7330 N.ar    1  UNL1       -0.1114
      3 N         139.0317  139.2297  157.3529 N.ar    1  UNL1       -0.1056
      4 C         137.9315  140.2421  157.4727 C.ar    1  UNL1        0.2673
      5 O         137.5950  140.3911  158.9269 O.2     1  UNL1       -0.4182
      6 C         137.2817  140.9766  156.3376 C.ar    1  UNL1        0.1376
      7 C         138.1111  141.8277  155.4225 C.ar    1  UNL1        0.0240
      8 C         137.4614  142.5622  154.2875 C.ar    1  UNL1        0.0032
      9 C         135.9822  142.4455  154.0676 C.ar    1  UNL1        0.0192
     10 C         135.1527  141.5944  154.9827 C.ar    1  UNL1        0.0842
     11 C         133.6843  141.2899  155.0138 C.ar    1  UNL1        0.0356
     12 C         133.4265  140.3672  156.1681 C.ar    1  UNL1        0.0801
     13 N         134.7356  140.1015  156.8504 N.ar    1  UNL1       -0.1694
     14 N         135.8025  140.8599  156.1178 N.ar    1  UNL1       -0.2253
     15 C         132.0936  139.8084  156.5695 C.3     1  UNL1        0.0421
     16 C         132.0213  138.5385  157.3644 C.3     1  UNL1        0.0064
     17 C         130.8329  140.5197  156.1760 C.3     1  UNL1        0.0064
     18 N         138.4984  138.9539  164.1760 N.3     1  UNL1       -0.2726
     19 C         138.8983  137.8129  163.2881 C.3     1  UNL1        0.0726
     20 C         138.8946  137.9852  161.7981 C.3     1  UNL1        0.0266
     21 C         138.4910  139.2984  161.1959 C.3     1  UNL1        0.0810
     22 C         138.0911  140.4394  162.0838 C.3     1  UNL1        0.0266
     23 C         138.0948  140.2671  163.5738 C.3     1  UNL1        0.0726
     24 C         138.5021  138.7816  165.6660 C.3     1  UNL1        0.0747
     25 C         139.1799  139.7976  166.5369 C.3     1  UNL1        0.0494
     26 C         140.6759  139.8134  166.6458 C.3     1  UNL1        0.1437
     27 C         142.8869  138.5962  166.0296 C.3     1  UNL1        0.1741
     28 O         141.5081  139.0534  165.6559 O.3     1  UNL1       -0.3511
@<TRIPOS>BOND
     1    27    28    1
     2    28    26    1
     3    26    25    1
     4    25    24    1
     5    24    18    1
     6    18    19    1
     7    19    20    1
     8    20    21    1
     9    21     1    1
    10     1     2   ar
    11     2     3   ar
    12     3     4   ar
    13     4     6    1
    14     6     7   ar
    15     7     8   ar
    16     8     9   ar
    17     9    10   ar
    18    10    11   ar
    19    11    12   ar
    20    12    15    1
    21    15    16    1
    22    15    17    1
    23    12    13   ar
    24    13    14   ar
    25     4     5   ar
    26    21    22    1
    27    22    23    1
    28    23    18    1
    29     5     1   ar
    30    14     6   ar
    31    14    10   ar
@<TRIPOS>MOLECULE
*****
 28 31 0 0 0
SMALL
GASTEIGER

@<TRIPOS>ATOM
      1 C         143.8016  142.3839  163.9972 C.ar    1  UNL1        0.2261
      2 N         144.6345  143.4319  164.6741 N.ar    1  UNL1       -0.1114
      3 N         144.3168  143.4013  166.1398 N.ar    1  UNL1       -0.1056
      4 C         143.2875  142.3344  166.3687 C.ar    1  UNL1        0.2673
      5 O         142.9692  141.7057  165.0446 O.2     1  UNL1       -0.4182
      6 C         142.6828  141.9617  167.6899 C.ar    1  UNL1        0.1376
      7 C         143.3441  142.3921  168.9656 C.ar    1  UNL1        0.0240
      8 C         142.7393  142.0194  170.2866 C.ar    1  UNL1        0.0032
      9 C         141.4733  141.2162  170.3320 C.ar    1  UNL1        0.0192
     10 C         140.8120  140.7858  169.0564 C.ar    1  UNL1        0.0842
     11 C         139.5669  139.9932  168.7890 C.ar    1  UNL1        0.0356
     12 C         139.4021  139.8761  167.3027 C.ar    1  UNL1        0.0801
     13 N         140.5454  140.5963  166.6514 N.ar    1  UNL1       -0.1694
     14 N         141.4168  141.1585  167.7353 N.ar    1  UNL1       -0.2253
     15 C         138.2893  139.1638  166.5924 C.3     1  UNL1        0.0421
     16 C         137.3806  138.2448  167.3537 C.3     1  UNL1        0.0064
     17 C         138.0853  139.3706  165.1208 C.3     1  UNL1        0.0064
     18 N         143.8007  141.4406  159.5973 N.3     1  UNL1       -0.2726
     19 C         143.7464  140.3288  160.6027 C.3     1  UNL1        0.0726
     20 C         143.7467  140.6432  162.0693 C.3     1  UNL1        0.0266
     21 C         143.8013  142.0695  162.5306 C.3     1  UNL1        0.0810
     22 C         143.8556  143.1814  161.5252 C.3     1  UNL1        0.0266
     23 C         143.8553  142.8669  160.0585 C.3     1  UNL1        0.0726
     24 C         143.8003  141.1262  158.1306 C.3     1  UNL1        0.0747
     25 C         145.0991  140.9881  157.3929 C.3     1  UNL1        0.0494
     26 C         145.8975  142.2093  157.0449 C.3     1  UNL1        0.1437
     27 C         148.1268  142.0225  155.7238 C.3     1  UNL1        0.1741
     28 O         146.6476  142.2704  155.7474 O.3     1  UNL1       -0.3511
@<TRIPOS>BOND
     1    27    28    1
     2    28    26    1
     3    26    25    1
     4    25    24    1
     5    24    18    1
     6    18    19    1
     7    19    20    1
     8    20    21    1
     9    21     1    1
    10     1     2   ar
    11     2     3   ar
    12     3     4   ar
    13     4     6    1
    14     6     7   ar
    15     7     8   ar
    16     8     9   ar
    17     9    10   ar
    18    10    11   ar
    19    11    12   ar
    20    12    15    1
    21    15    16    1
    22    15    17    1
    23    12    13   ar
    24    13    14   ar
    25     4     5   ar
    26    21    22    1
    27    22    23    1
    28    23    18    1
    29     5     1   ar
    30    14     6   ar
    31    14    10   ar
@<TRIPOS>MOLECULE
*****
 28 31 0 0 0
SMALL
GASTEIGER

@<TRIPOS>ATOM
      1 C         139.7724  138.9015  160.6061 C.ar    1  UNL1        0.2261
      2 N         138.3204  139.2718  160.6741 N.ar    1  UNL1       -0.1114
      3 N         138.0065  139.6593  162.0887 N.ar    1  UNL1       -0.1056
      4 C         139.2645  139.5286  162.8951 C.ar    1  UNL1        0.2673
      5 O         140.3559  139.0602  161.9788 O.2     1  UNL1       -0.4182
      6 C         139.4063  139.8157  164.3606 C.ar    1  UNL1        0.1376
      7 C         138.5717  139.0656  165.3560 C.ar    1  UNL1        0.0240
      8 C         138.7136  139.3528  166.8214 C.ar    1  UNL1        0.0032
      9 C         139.6899  140.3901  167.2914 C.ar    1  UNL1        0.0192
     10 C         140.5244  141.1402  166.2959 C.ar    1  UNL1        0.0842
     11 C         141.5626  142.2103  166.4602 C.ar    1  UNL1        0.0356
     12 C         142.0624  142.5846  165.0963 C.ar    1  UNL1        0.0801
     13 N         141.3331  141.7457  164.0891 N.ar    1  UNL1       -0.1694
     14 N         140.3826  140.8530  164.8306 N.ar    1  UNL1       -0.2253
     15 C         143.1079  143.6165  164.7930 C.3     1  UNL1        0.0421
     16 C         142.7912  144.7565  163.8710 C.3     1  UNL1        0.0064
     17 C         144.4701  143.5084  165.4116 C.3     1  UNL1        0.0064
     18 N         141.9887  137.5517  156.9298 N.3     1  UNL1       -0.2726
     19 C         140.5035  137.7555  156.8776 C.3     1  UNL1        0.0726
     20 C         139.7648  138.2054  158.1031 C.3     1  UNL1        0.0266
     21 C         140.5112  138.4516  159.3807 C.3     1  UNL1        0.0810
     22 C         141.9963  138.2479  159.4329 C.3     1  UNL1        0.0266
     23 C         142.7351  137.7979  158.2074 C.3     1  UNL1        0.0726
     24 C         142.7275  137.1018  155.7044 C.3     1  UNL1        0.0747
     25 C         142.6200  135.6781  155.2442 C.3     1  UNL1        0.0494
     26 C         142.5430  134.5685  156.2506 C.3     1  UNL1        0.1437
     27 C         144.2792  133.1632  157.5775 C.3     1  UNL1        0.1741
     28 O         143.5756  134.4653  157.3337 O.3     1  UNL1       -0.3511
@<TRIPOS>BOND
     1    27    28    1
     2    28    26    1
     3    26    25    1
     4    25    24    1
     5    24    18    1
     6    18    19    1
     7    19    20    1
     8    20    21    1
     9    21     1    1
    10     1     2   ar
    11     2     3   ar
    12     3     4   ar
    13     4     6    1
    14     6     7   ar
    15     7     8   ar
    16     8     9   ar
    17     9    10   ar
    18    10    11   ar
    19    11    12   ar
    20    12    15    1
    21    15    16    1
    22    15    17    1
    23    12    13   ar
    24    13    14   ar
    25     4     5   ar
    26    21    22    1
    27    22    23    1
    28    23    18    1
    29     5     1   ar
    30    14     6   ar
    31    14    10   ar
@<TRIPOS>MOLECULE
*****
 28 31 0 0 0
SMALL
GASTEIGER

@<TRIPOS>ATOM
      1 C         139.4465  139.5900  159.9981 C.ar    1  UNL1        0.2261
      2 N         137.9465  139.5848  159.9814 N.ar    1  UNL1       -0.1114
      3 N         137.4679  140.5264  161.0465 N.ar    1  UNL1       -0.1056
      4 C         138.6720  141.1134  161.7215 C.ar    1  UNL1        0.2673
      5 O         139.8948  140.5347  161.0735 O.2     1  UNL1       -0.4182
      6 C         138.6560  142.1051  162.8468 C.ar    1  UNL1        0.1376
      7 C         137.8714  143.3767  162.7149 C.ar    1  UNL1        0.0240
      8 C         137.8555  144.3683  163.8402 C.ar    1  UNL1        0.0032
      9 C         138.6243  144.0884  165.0974 C.ar    1  UNL1        0.0192
     10 C         139.4089  142.8169  165.2294 C.ar    1  UNL1        0.0842
     11 C         140.2570  142.2714  166.3398 C.ar    1  UNL1        0.0356
     12 C         140.7971  140.9426  165.9008 C.ar    1  UNL1        0.0801
     13 N         140.2828  140.6668  164.5190 N.ar    1  UNL1       -0.1694
     14 N         139.4248  141.8252  164.1040 N.ar    1  UNL1       -0.2253
     15 C         141.6940  140.0468  166.7029 C.3     1  UNL1        0.0421
     16 C         141.5336  139.9635  168.1919 C.3     1  UNL1        0.0064
     17 C         142.7513  139.2344  166.0158 C.3     1  UNL1        0.0064
     18 N         142.1300  137.1923  157.2964 N.3     1  UNL1       -0.2726
     19 C         142.6424  137.6847  158.6174 C.3     1  UNL1        0.0726
     20 C         141.7478  138.4840  159.5180 C.3     1  UNL1        0.0266
     21 C         140.3410  138.7908  159.0975 C.3     1  UNL1        0.0810
     22 C         139.8287  138.2983  157.7766 C.3     1  UNL1        0.0266
     23 C         140.7232  137.4991  156.8760 C.3     1  UNL1        0.0726
     24 C         143.0245  136.3931  156.3958 C.3     1  UNL1        0.0747
     25 C         142.5018  135.1584  155.7231 C.3     1  UNL1        0.0494
     26 C         142.6858  133.8173  156.3693 C.3     1  UNL1        0.1437
     27 C         144.6242  133.0668  157.9279 C.3     1  UNL1        0.1741
     28 O         143.2878  133.7213  157.7399 O.3     1  UNL1       -0.3511
@<TRIPOS>BOND
     1    27    28    1
     2    28    26    1
     3    26    25    1
     4    25    24    1
     5    24    18    1
     6    18    19    1
     7    19    20    1
     8    20    21    1
     9    21     1    1
    10     1     2   ar
    11     2     3   ar
    12     3     4   ar
    13     4     6    1
    14     6     7   ar
    15     7     8   ar
    16     8     9   ar
    17     9    10   ar
    18    10    11   ar
    19    11    12   ar
    20    12    15    1
    21    15    16    1
    22    15    17    1
    23    12    13   ar
    24    13    14   ar
    25     4     5   ar
    26    21    22    1
    27    22    23    1
    28    23    18    1
    29     5     1   ar
    30    14     6   ar
    31    14    10   ar
@<TRIPOS>MOLECULE
*****
 28 31 0 0 0
SMALL
GASTEIGER

@<TRIPOS>ATOM
      1 C         140.6691  140.8264  168.2901 C.ar    1  UNL1        0.2261
      2 N         139.5683  139.9938  168.8777 N.ar    1  UNL1       -0.1114
      3 N         138.8743  139.2831  167.7538 N.ar    1  UNL1       -0.1056
      4 C         139.5460  139.6765  166.4716 C.ar    1  UNL1        0.2673
      5 O         140.6553  140.6303  166.8031 O.2     1  UNL1       -0.4182
      6 C         139.1739  139.1998  165.0989 C.ar    1  UNL1        0.1376
      7 C         138.9602  137.7369  164.8453 C.ar    1  UNL1        0.0240
      8 C         138.5881  137.2602  163.4726 C.ar    1  UNL1        0.0032
      9 C         138.4297  138.2464  162.3535 C.ar    1  UNL1        0.0192
     10 C         138.6434  139.7093  162.6071 C.ar    1  UNL1        0.0842
     11 C         138.5587  140.9067  161.7078 C.ar    1  UNL1        0.0356
     12 C         138.8785  142.1235  162.5246 C.ar    1  UNL1        0.0801
     13 N         139.1608  141.6781  163.9288 N.ar    1  UNL1       -0.1694
     14 N         139.0155  140.1859  163.9798 N.ar    1  UNL1       -0.2253
     15 C         138.9104  143.5375  162.0249 C.3     1  UNL1        0.0421
     16 C         138.2380  144.6254  162.8087 C.3     1  UNL1        0.0064
     17 C         139.6147  143.8636  160.7413 C.3     1  UNL1        0.0064
     18 N         143.5132  143.4516  170.5856 N.3     1  UNL1       -0.2726
     19 C         142.0539  143.7943  170.5315 C.3     1  UNL1        0.0726
     20 C         141.1058  142.9193  169.7664 C.3     1  UNL1        0.0266
     21 C         141.6171  141.7015  169.0553 C.3     1  UNL1        0.0810
     22 C         143.0764  141.3588  169.1093 C.3     1  UNL1        0.0266
     23 C         144.0245  142.2339  169.8744 C.3     1  UNL1        0.0726
     24 C         144.4612  144.3267  171.3507 C.3     1  UNL1        0.0747
     25 C         145.9343  144.2559  171.0768 C.3     1  UNL1        0.0494
     26 C         146.8150  145.4252  171.4039 C.3     1  UNL1        0.1437
     27 C         147.5872  146.5231  173.6284 C.3     1  UNL1        0.1741
     28 O         147.6679  145.3998  172.6376 O.3     1  UNL1       -0.3511
@<TRIPOS>BOND
     1    27    28    1
     2    28    26    1
     3    26    25    1
     4    25    24    1
     5    24    18    1
     6    18    19    1
     7    19    20    1
     8    20    21    1
     9    21     1    1
    10     1     2   ar
    11     2     3   ar
    12     3     4   ar
    13     4     6    1
    14     6     7   ar
    15     7     8   ar
    16     8     9   ar
    17     9    10   ar
    18    10    11   ar
    19    11    12   ar
    20    12    15    1
    21    15    16    1
    22    15    17    1
    23    12    13   ar
    24    13    14   ar
    25     4     5   ar
    26    21    22    1
    27    22    23    1
    28    23    18    1
    29     5     1   ar
    30    14     6   ar
    31    14    10   ar
@<TRIPOS>MOLECULE
*****
 28 31 0 0 0
SMALL
GASTEIGER

@<TRIPOS>ATOM
      1 C         142.3270  144.2515  158.5588 C.ar    1  UNL1        0.2261
      2 N         143.2635  143.1521  158.1531 N.ar    1  UNL1       -0.1114
      3 N         143.8213  142.5344  159.4010 N.ar    1  UNL1       -0.1056
      4 C         143.2296  143.2519  160.5779 C.ar    1  UNL1        0.2673
      5 O         142.3061  144.3131  160.0573 O.2     1  UNL1       -0.4182
      6 C         143.5119  142.9596  162.0218 C.ar    1  UNL1        0.1376
      7 C         144.8880  142.5410  162.4472 C.ar    1  UNL1        0.0240
      8 C         145.1702  142.2487  163.8911 C.ar    1  UNL1        0.0032
      9 C         144.0763  142.3749  164.9096 C.ar    1  UNL1        0.0192
     10 C         142.7001  142.7935  164.4842 C.ar    1  UNL1        0.0842
     11 C         141.4310  143.0023  165.2560 C.ar    1  UNL1        0.0356
     12 C         140.3644  143.4236  164.2891 C.ar    1  UNL1        0.0801
     13 N         140.9744  143.4753  162.9197 N.ar    1  UNL1       -0.1694
     14 N         142.4179  143.0858  163.0403 N.ar    1  UNL1       -0.2253
     15 C         138.9383  143.7382  164.6316 C.3     1  UNL1        0.0421
     16 C         138.6154  144.9409  165.4677 C.3     1  UNL1        0.0064
     17 C         137.8350  142.8499  164.1379 C.3     1  UNL1        0.0064
     18 N         139.9907  146.8995  155.7697 N.3     1  UNL1       -0.2726
     19 C         141.2053  146.1732  155.2726 C.3     1  UNL1        0.0726
     20 C         141.9841  145.2905  156.2023 C.3     1  UNL1        0.0266
     21 C         141.5482  145.1342  157.6291 C.3     1  UNL1        0.0810
     22 C         140.3336  145.8605  158.1261 C.3     1  UNL1        0.0266
     23 C         139.5548  146.7432  157.1964 C.3     1  UNL1        0.0726
     24 C         139.2119  147.7822  154.8400 C.3     1  UNL1        0.0747
     25 C         139.9215  148.5499  153.7643 C.3     1  UNL1        0.0494
     26 C         140.6041  149.8446  154.0927 C.3     1  UNL1        0.1437
     27 C         138.6906  151.4817  154.7319 C.3     1  UNL1        0.1741
     28 O         139.9798  150.7943  155.0716 O.3     1  UNL1       -0.3511
@<TRIPOS>BOND
     1    27    28    1
     2    28    26    1
     3    26    25    1
     4    25    24    1
     5    24    18    1
     6    18    19    1
     7    19    20    1
     8    20    21    1
     9    21     1    1
    10     1     2   ar
    11     2     3   ar
    12     3     4   ar
    13     4     6    1
    14     6     7   ar
    15     7     8   ar
    16     8     9   ar
    17     9    10   ar
    18    10    11   ar
    19    11    12   ar
    20    12    15    1
    21    15    16    1
    22    15    17    1
    23    12    13   ar
    24    13    14   ar
    25     4     5   ar
    26    21    22    1
    27    22    23    1
    28    23    18    1
    29     5     1   ar
    30    14     6   ar
    31    14    10   ar
