@<TRIPOS>MOLECULE
*****
 32 36 0 0 0
SMALL
GASTEIGER

@<TRIPOS>ATOM
      1 C         141.2717  140.4374  170.7161 C.3     1  UNL1        0.2053
      2 C         139.9751  140.3009  169.9742 C.3     1  UNL1        0.0438
      3 C         138.4777  140.2127  169.9809 C.3     1  UNL1        0.0038
      4 C         139.2267  140.1526  168.6827 C.3     1  UNL1        0.0038
      5 C         139.2272  140.0323  167.1876 C.3     1  UNL1        0.0035
      6 C         139.6737  141.1882  166.3423 C.3     1  UNL1        0.0216
      7 C         139.6741  141.0679  164.8471 C.3     1  UNL1        0.0936
      8 N         139.2280  139.7917  164.1972 N.pl3   1  UNL1       -0.2782
      9 C         138.7815  138.6358  165.0425 C.3     1  UNL1        0.0936
     10 C         138.7811  138.7561  166.5377 C.3     1  UNL1        0.0216
     11 C         139.2284  139.6714  162.7021 C.ar    1  UNL1        0.2202
     12 N         139.1983  140.9058  161.8503 N.ar    1  UNL1       -0.2112
     13 C         139.1988  140.7855  160.3552 C.ar    1  UNL1        0.1147
     14 C         139.2293  139.4308  159.7117 C.ar    1  UNL1        0.0960
     15 CL        139.2297  139.3105  158.2166 Cl      1  UNL1       -0.0790
     16 C         139.2594  138.1965  160.5635 C.ar    1  UNL1        0.1147
     17 N         139.2590  138.3168  162.0587 N.ar    1  UNL1       -0.2112
     18 O         142.4620  141.0499  170.0394 O.3     1  UNL1       -0.4754
     19 C         143.2416  140.2328  165.6835 C.ar    1  UNL1        0.0810
     20 C         143.0209  139.0925  166.6326 C.ar    1  UNL1        0.0099
     21 C         142.7610  139.3649  168.0846 C.ar    1  UNL1        0.0372
     22 C         142.7219  140.7776  168.5874 C.ar    1  UNL1        0.1408
     23 C         142.9426  141.9179  167.6382 C.ar    1  UNL1        0.0666
     24 C         143.2025  141.6455  166.1863 C.ar    1  UNL1        0.1475
     25 F         143.4232  142.7858  165.2370 F       1  UNL1       -0.2039
     26 O         144.6642  140.6115  163.5427 O.2     1  UNL1       -0.2701
     27 C         143.5015  139.9605  164.2314 C.2     1  UNL1        0.2480
     28 N         142.5988  139.0372  163.4682 N.am    1  UNL1       -0.3024
     29 H         141.8357  138.6099  163.9203 H       1  UNL1        0.1497
     30 C         142.8587  138.7648  162.0162 C.3     1  UNL1        0.0720
     31 C         142.9149  139.2411  160.5950 C.3     1  UNL1        0.0213
     32 C         143.2526  137.8168  160.9225 C.3     1  UNL1        0.0213
@<TRIPOS>BOND
     1    26    27    2
     2    27    28   am
     3    28    30    1
     4    30    31    1
     5    31    32    1
     6    27    19    1
     7    19    20   ar
     8    20    21   ar
     9    21    22   ar
    10    22    18    1
    11    18     1    1
    12     1     2    1
    13     2     3    1
    14     3     4    1
    15     4     5    1
    16     5     6    1
    17     6     7    1
    18     7     8    1
    19     8    11    1
    20    11    12   ar
    21    12    13   ar
    22    13    14   ar
    23    14    15    1
    24    14    16   ar
    25    16    17   ar
    26     8     9    1
    27     9    10    1
    28    22    23   ar
    29    23    24   ar
    30    24    25    1
    31    32    30    1
    32    24    19   ar
    33     4     2    1
    34    10     5    1
    35    17    11   ar
    36    28    29    1
@<TRIPOS>MOLECULE
*****
 32 36 0 0 0
SMALL
GASTEIGER

@<TRIPOS>ATOM
      1 C         141.2698  140.5876  170.7104 C.3     1  UNL1        0.2053
      2 C         139.9844  140.3645  169.9701 C.3     1  UNL1        0.0438
      3 C         138.4962  140.1770  169.9784 C.3     1  UNL1        0.0038
      4 C         139.2463  140.1656  168.6795 C.3     1  UNL1        0.0038
      5 C         139.2533  140.0442  167.1844 C.3     1  UNL1        0.0035
      6 C         139.6361  141.2219  166.3381 C.3     1  UNL1        0.0216
      7 C         139.6431  141.1005  164.8430 C.3     1  UNL1        0.0936
      8 N         139.2672  139.8013  164.1943 N.pl3   1  UNL1       -0.2782
      9 C         138.8843  138.6236  165.0407 C.3     1  UNL1        0.0936
     10 C         138.8773  138.7450  166.5358 C.3     1  UNL1        0.0216
     11 C         139.2741  139.6799  162.6993 C.ar    1  UNL1        0.2202
     12 N         139.3408  140.9124  161.8470 N.ar    1  UNL1       -0.2112
     13 C         139.3477  140.7910  160.3519 C.ar    1  UNL1        0.1147
     14 C         139.2880  139.4370  159.7091 C.ar    1  UNL1        0.0960
     15 CL        139.2950  139.3155  158.2141 Cl      1  UNL1       -0.0790
     16 C         139.2213  138.2044  160.5614 C.ar    1  UNL1        0.1147
     17 N         139.2144  138.3259  162.0565 N.ar    1  UNL1       -0.2112
     18 O         142.4214  141.2635  170.0270 O.3     1  UNL1       -0.4754
     19 C         143.2690  140.4253  165.6878 C.ar    1  UNL1        0.0810
     20 C         143.2234  141.8403  166.1833 C.ar    1  UNL1        0.0099
     21 C         142.9408  142.1197  167.6297 C.ar    1  UNL1        0.0372
     22 C         142.7039  140.9840  168.5806 C.ar    1  UNL1        0.1408
     23 C         142.7496  139.5690  168.0851 C.ar    1  UNL1        0.0666
     24 C         143.0321  139.2896  166.6387 C.ar    1  UNL1        0.1475
     25 F         143.0777  137.8745  166.1431 F       1  UNL1       -0.2039
     26 O         144.8151  139.4403  163.8467 O.2     1  UNL1       -0.2701
     27 C         143.5516  140.1458  164.2414 C.2     1  UNL1        0.2480
     28 N         142.5707  140.5720  163.1896 N.am    1  UNL1       -0.3024
     29 H         141.7414  141.0351  163.4487 H       1  UNL1        0.1497
     30 C         142.8532  140.2925  161.7432 C.3     1  UNL1        0.0720
     31 C         143.1131  140.7873  160.3512 C.3     1  UNL1        0.0213
     32 C         143.0827  139.3138  160.6299 C.3     1  UNL1        0.0213
@<TRIPOS>BOND
     1    26    27    2
     2    27    28   am
     3    28    30    1
     4    30    31    1
     5    31    32    1
     6    27    19    1
     7    19    20   ar
     8    20    21   ar
     9    21    22   ar
    10    22    18    1
    11    18     1    1
    12     1     2    1
    13     2     3    1
    14     3     4    1
    15     4     5    1
    16     5     6    1
    17     6     7    1
    18     7     8    1
    19     8    11    1
    20    11    12   ar
    21    12    13   ar
    22    13    14   ar
    23    14    15    1
    24    14    16   ar
    25    16    17   ar
    26     8     9    1
    27     9    10    1
    28    22    23   ar
    29    23    24   ar
    30    24    25    1
    31    32    30    1
    32    24    19   ar
    33     4     2    1
    34    10     5    1
    35    17    11   ar
    36    28    29    1
@<TRIPOS>MOLECULE
*****
 32 36 0 0 0
SMALL
GASTEIGER

@<TRIPOS>ATOM
      1 C         139.4464  141.0058  170.2598 C.3     1  UNL1        0.2053
      2 C         140.0326  142.2408  169.6424 C.3     1  UNL1        0.0438
      3 C         140.3875  143.6954  169.7330 C.3     1  UNL1        0.0038
      4 C         140.6931  142.9253  168.4826 C.3     1  UNL1        0.0038
      5 C         141.2509  142.8759  167.0911 C.3     1  UNL1        0.0035
      6 C         142.7119  142.6114  166.8776 C.3     1  UNL1        0.0216
      7 C         143.2696  142.5620  165.4861 C.3     1  UNL1        0.0936
      8 N         142.3664  142.7770  164.3079 N.pl3   1  UNL1       -0.2782
      9 C         140.9054  143.0414  164.5214 C.3     1  UNL1        0.0936
     10 C         140.3476  143.0909  165.9130 C.3     1  UNL1        0.0216
     11 C         142.9241  142.7275  162.9164 C.ar    1  UNL1        0.2202
     12 N         142.1132  143.2430  161.7645 N.ar    1  UNL1       -0.2112
     13 C         142.6709  143.1935  160.3730 C.ar    1  UNL1        0.1147
     14 C         144.0397  142.6286  160.1332 C.ar    1  UNL1        0.0960
     15 CL        144.5974  142.5791  158.7417 Cl      1  UNL1       -0.0790
     16 C         144.8506  142.1131  161.2850 C.ar    1  UNL1        0.1147
     17 N         144.2928  142.1626  162.6766 N.ar    1  UNL1       -0.2112
     18 O         139.7628  139.6571  169.6846 O.3     1  UNL1       -0.4754
     19 C         141.0644  139.2907  165.3926 C.ar    1  UNL1        0.0810
     20 C         139.6121  139.4678  165.7234 C.ar    1  UNL1        0.0099
     21 C         139.1783  139.5899  167.1540 C.ar    1  UNL1        0.0372
     22 C         140.1967  139.5350  168.2539 C.ar    1  UNL1        0.1408
     23 C         141.6490  139.3579  167.9232 C.ar    1  UNL1        0.0666
     24 C         142.0829  139.2357  166.4925 C.ar    1  UNL1        0.1475
     25 F         143.5352  139.0586  166.1617 F       1  UNL1       -0.2039
     26 O         140.7695  139.9234  162.8901 O.2     1  UNL1       -0.2701
     27 C         141.4984  139.1685  163.9619 C.2     1  UNL1        0.2480
     28 N         142.6611  138.2915  163.6031 N.am    1  UNL1       -0.3024
     29 H         143.1395  137.7960  164.3066 H       1  UNL1        0.1497
     30 C         143.0950  138.1693  162.1724 C.3     1  UNL1        0.0720
     31 C         144.1000  138.4395  161.0921 C.3     1  UNL1        0.0213
     32 C         142.8416  137.6875  160.7747 C.3     1  UNL1        0.0213
@<TRIPOS>BOND
     1    26    27    2
     2    27    28   am
     3    28    30    1
     4    30    31    1
     5    31    32    1
     6    27    19    1
     7    19    20   ar
     8    20    21   ar
     9    21    22   ar
    10    22    18    1
    11    18     1    1
    12     1     2    1
    13     2     3    1
    14     3     4    1
    15     4     5    1
    16     5     6    1
    17     6     7    1
    18     7     8    1
    19     8    11    1
    20    11    12   ar
    21    12    13   ar
    22    13    14   ar
    23    14    15    1
    24    14    16   ar
    25    16    17   ar
    26     8     9    1
    27     9    10    1
    28    22    23   ar
    29    23    24   ar
    30    24    25    1
    31    32    30    1
    32    24    19   ar
    33     4     2    1
    34    10     5    1
    35    17    11   ar
    36    28    29    1
@<TRIPOS>MOLECULE
*****
 32 36 0 0 0
SMALL
GASTEIGER

@<TRIPOS>ATOM
      1 C         140.0606  139.9804  168.0403 C.3     1  UNL1        0.2053
      2 C         138.9638  139.4847  167.1451 C.3     1  UNL1        0.0438
      3 C         137.7160  138.6768  166.9446 C.3     1  UNL1        0.0038
      4 C         138.3120  139.4340  165.7951 C.3     1  UNL1        0.0038
      5 C         138.2798  139.8418  164.3520 C.3     1  UNL1        0.0035
      6 C         137.8581  141.2309  163.9744 C.3     1  UNL1        0.0216
      7 C         137.8259  141.6388  162.5313 C.3     1  UNL1        0.0936
      8 N         138.2154  140.6575  161.4657 N.pl3   1  UNL1       -0.2782
      9 C         138.6371  139.2684  161.8432 C.3     1  UNL1        0.0936
     10 C         138.6693  138.8606  163.2864 C.3     1  UNL1        0.0216
     11 C         138.1832  141.0654  160.0226 C.ar    1  UNL1        0.2202
     12 N         137.7905  140.0708  158.9707 N.ar    1  UNL1       -0.2112
     13 C         137.7583  140.4787  157.5276 C.ar    1  UNL1        0.1147
     14 C         138.1188  141.8812  157.1363 C.ar    1  UNL1        0.0960
     15 CL        138.0866  142.2891  155.6933 Cl      1  UNL1       -0.0790
     16 C         138.5116  142.8758  158.1883 C.ar    1  UNL1        0.1147
     17 N         138.5438  142.4679  159.6314 N.ar    1  UNL1       -0.2112
     18 O         140.4422  141.4310  168.0262 O.3     1  UNL1       -0.4754
     19 C         140.9873  143.5762  164.1082 C.ar    1  UNL1        0.0810
     20 C         141.8594  142.4045  164.4494 C.ar    1  UNL1        0.0099
     21 C         141.6778  141.6895  165.7554 C.ar    1  UNL1        0.0372
     22 C         140.6239  142.1461  166.7202 C.ar    1  UNL1        0.1408
     23 C         139.7517  143.3177  166.3790 C.ar    1  UNL1        0.0666
     24 C         139.9334  144.0328  165.0730 C.ar    1  UNL1        0.1475
     25 F         139.0611  145.2045  164.7318 F       1  UNL1       -0.2039
     26 O         141.3896  145.7749  162.7838 O.2     1  UNL1       -0.2701
     27 C         141.1689  144.2913  162.8022 C.2     1  UNL1        0.2480
     28 N         141.1299  143.5229  161.5146 N.am    1  UNL1       -0.3024
     29 H         140.9851  142.5492  161.5267 H       1  UNL1        0.1497
     30 C         141.3116  144.2380  160.2086 C.3     1  UNL1        0.0720
     31 C         140.9369  145.3486  159.2726 C.3     1  UNL1        0.0213
     32 C         142.0010  144.3660  158.8825 C.3     1  UNL1        0.0213
@<TRIPOS>BOND
     1    26    27    2
     2    27    28   am
     3    28    30    1
     4    30    31    1
     5    31    32    1
     6    27    19    1
     7    19    20   ar
     8    20    21   ar
     9    21    22   ar
    10    22    18    1
    11    18     1    1
    12     1     2    1
    13     2     3    1
    14     3     4    1
    15     4     5    1
    16     5     6    1
    17     6     7    1
    18     7     8    1
    19     8    11    1
    20    11    12   ar
    21    12    13   ar
    22    13    14   ar
    23    14    15    1
    24    14    16   ar
    25    16    17   ar
    26     8     9    1
    27     9    10    1
    28    22    23   ar
    29    23    24   ar
    30    24    25    1
    31    32    30    1
    32    24    19   ar
    33     4     2    1
    34    10     5    1
    35    17    11   ar
    36    28    29    1
@<TRIPOS>MOLECULE
*****
 32 36 0 0 0
SMALL
GASTEIGER

@<TRIPOS>ATOM
      1 C         139.6206  140.2370  168.8202 C.3     1  UNL1        0.2053
      2 C         138.8408  139.5174  167.7599 C.3     1  UNL1        0.0438
      3 C         137.6124  138.7702  167.3327 C.3     1  UNL1        0.0038
      4 C         138.7188  139.0182  166.3507 C.3     1  UNL1        0.0038
      5 C         139.2871  138.8732  164.9701 C.3     1  UNL1        0.0035
      6 C         139.2115  140.0180  164.0039 C.3     1  UNL1        0.0216
      7 C         139.7799  139.8729  162.6233 C.3     1  UNL1        0.0936
      8 N         140.4238  138.5831  162.2090 N.pl3   1  UNL1       -0.2782
      9 C         140.4994  137.4383  163.1753 C.3     1  UNL1        0.0936
     10 C         139.9310  137.5833  164.5559 C.3     1  UNL1        0.0216
     11 C         140.9922  138.4380  160.8285 C.ar    1  UNL1        0.2202
     12 N         142.3487  137.8275  160.6362 N.ar    1  UNL1       -0.2112
     13 C         142.9170  137.6824  159.2556 C.ar    1  UNL1        0.1147
     14 C         142.1288  138.1480  158.0673 C.ar    1  UNL1        0.0960
     15 CL        142.6972  138.0030  156.6868 Cl      1  UNL1       -0.0790
     16 C         140.7723  138.7586  158.2596 C.ar    1  UNL1        0.1147
     17 N         140.2040  138.9036  159.6402 N.ar    1  UNL1       -0.2112
     18 O         141.1124  140.3468  168.7097 O.3     1  UNL1       -0.4754
     19 C         143.0389  140.8462  164.6736 C.ar    1  UNL1        0.0810
     20 C         143.1317  139.5325  165.3916 C.ar    1  UNL1        0.0099
     21 C         142.4896  139.3661  166.7369 C.ar    1  UNL1        0.0372
     22 C         141.7546  140.5133  167.3643 C.ar    1  UNL1        0.1408
     23 C         141.6617  141.8270  166.6463 C.ar    1  UNL1        0.0666
     24 C         142.3039  141.9935  165.3010 C.ar    1  UNL1        0.1475
     25 F         142.2110  143.3072  164.5830 F       1  UNL1       -0.2039
     26 O         145.1302  140.6735  163.1418 O.2     1  UNL1       -0.2701
     27 C         143.6810  141.0127  163.3283 C.2     1  UNL1        0.2480
     28 N         142.8740  141.5185  162.1694 N.am    1  UNL1       -0.3024
     29 H         141.9228  141.7411  162.2918 H       1  UNL1        0.1497
     30 C         143.5162  141.6850  160.8241 C.3     1  UNL1        0.0720
     31 C         144.4482  142.4266  159.9124 C.3     1  UNL1        0.0213
     32 C         143.6963  141.2317  159.4056 C.3     1  UNL1        0.0213
@<TRIPOS>BOND
     1    26    27    2
     2    27    28   am
     3    28    30    1
     4    30    31    1
     5    31    32    1
     6    27    19    1
     7    19    20   ar
     8    20    21   ar
     9    21    22   ar
    10    22    18    1
    11    18     1    1
    12     1     2    1
    13     2     3    1
    14     3     4    1
    15     4     5    1
    16     5     6    1
    17     6     7    1
    18     7     8    1
    19     8    11    1
    20    11    12   ar
    21    12    13   ar
    22    13    14   ar
    23    14    15    1
    24    14    16   ar
    25    16    17   ar
    26     8     9    1
    27     9    10    1
    28    22    23   ar
    29    23    24   ar
    30    24    25    1
    31    32    30    1
    32    24    19   ar
    33     4     2    1
    34    10     5    1
    35    17    11   ar
    36    28    29    1
@<TRIPOS>MOLECULE
*****
 32 36 0 0 0
SMALL
GASTEIGER

@<TRIPOS>ATOM
      1 C         139.6915  140.3524  169.0835 C.3     1  UNL1        0.2053
      2 C         140.1382  141.7215  168.6637 C.3     1  UNL1        0.0438
      3 C         140.5308  143.1252  169.0177 C.3     1  UNL1        0.0038
      4 C         140.5192  142.6890  167.5826 C.3     1  UNL1        0.0038
      5 C         140.7324  142.9958  166.1299 C.3     1  UNL1        0.0035
      6 C         141.9741  142.5184  165.4370 C.3     1  UNL1        0.0216
      7 C         142.1873  142.8251  163.9843 C.3     1  UNL1        0.0936
      8 N         141.1588  143.6093  163.2245 N.pl3   1  UNL1       -0.2782
      9 C         139.9171  144.0867  163.9174 C.3     1  UNL1        0.0936
     10 C         139.7039  143.7799  165.3702 C.3     1  UNL1        0.0216
     11 C         141.3721  143.9161  161.7718 C.ar    1  UNL1        0.2202
     12 N         140.5201  144.9450  161.0896 N.ar    1  UNL1       -0.2112
     13 C         140.7333  145.2518  159.6369 C.ar    1  UNL1        0.1147
     14 C         141.7986  144.5296  158.8663 C.ar    1  UNL1        0.0960
     15 CL        142.0118  144.8363  157.4136 Cl      1  UNL1       -0.0790
     16 C         142.6505  143.5006  159.5485 C.ar    1  UNL1        0.1147
     17 N         142.4373  143.1939  161.0013 N.ar    1  UNL1       -0.2112
     18 O         138.8601  139.5173  168.1554 O.3     1  UNL1       -0.4754
     19 C         139.9846  139.1849  163.8109 C.ar    1  UNL1        0.0810
     20 C         141.0110  138.9245  164.8733 C.ar    1  UNL1        0.0099
     21 C         140.6362  139.0353  166.3214 C.ar    1  UNL1        0.0372
     22 C         139.2350  139.4065  166.7071 C.ar    1  UNL1        0.1408
     23 C         138.2086  139.6669  165.6448 C.ar    1  UNL1        0.0666
     24 C         138.5834  139.5561  164.1966 C.ar    1  UNL1        0.1475
     25 F         137.5570  139.8165  163.1341 F       1  UNL1       -0.2039
     26 O         140.3854  137.7309  161.6953 O.2     1  UNL1       -0.2701
     27 C         140.3595  139.0741  162.3626 C.2     1  UNL1        0.2480
     28 N         140.7083  140.3063  161.5818 N.am    1  UNL1       -0.3024
     29 H         140.6912  141.1879  162.0198 H       1  UNL1        0.1497
     30 C         141.0831  140.1955  160.1336 C.3     1  UNL1        0.0720
     31 C         142.0519  139.7670  159.0716 C.3     1  UNL1        0.0213
     32 C         140.7636  140.4321  158.6872 C.3     1  UNL1        0.0213
@<TRIPOS>BOND
     1    26    27    2
     2    27    28   am
     3    28    30    1
     4    30    31    1
     5    31    32    1
     6    27    19    1
     7    19    20   ar
     8    20    21   ar
     9    21    22   ar
    10    22    18    1
    11    18     1    1
    12     1     2    1
    13     2     3    1
    14     3     4    1
    15     4     5    1
    16     5     6    1
    17     6     7    1
    18     7     8    1
    19     8    11    1
    20    11    12   ar
    21    12    13   ar
    22    13    14   ar
    23    14    15    1
    24    14    16   ar
    25    16    17   ar
    26     8     9    1
    27     9    10    1
    28    22    23   ar
    29    23    24   ar
    30    24    25    1
    31    32    30    1
    32    24    19   ar
    33     4     2    1
    34    10     5    1
    35    17    11   ar
    36    28    29    1
@<TRIPOS>MOLECULE
*****
 32 36 0 0 0
SMALL
GASTEIGER

@<TRIPOS>ATOM
      1 C         139.8978  140.1882  168.8886 C.3     1  UNL1        0.2053
      2 C         140.2372  141.5960  168.4972 C.3     1  UNL1        0.0438
      3 C         140.5166  143.0192  168.8798 C.3     1  UNL1        0.0038
      4 C         140.5455  142.6111  167.4368 C.3     1  UNL1        0.0038
      5 C         140.7402  142.9614  165.9913 C.3     1  UNL1        0.0035
      6 C         139.6288  143.6099  165.2205 C.3     1  UNL1        0.0216
      7 C         139.8235  143.9603  163.7751 C.3     1  UNL1        0.0936
      8 N         141.1297  143.6622  163.1004 N.pl3   1  UNL1       -0.2782
      9 C         142.2412  143.0137  163.8713 C.3     1  UNL1        0.0936
     10 C         142.0464  142.6633  165.3168 C.3     1  UNL1        0.0216
     11 C         141.3245  144.0126  161.6550 C.ar    1  UNL1        0.2202
     12 N         142.3948  143.3305  160.8555 N.ar    1  UNL1       -0.2112
     13 C         142.5895  143.6809  159.4101 C.ar    1  UNL1        0.1147
     14 C         141.7139  144.7135  158.7641 C.ar    1  UNL1        0.0960
     15 CL        141.9086  145.0639  157.3187 Cl      1  UNL1       -0.0790
     16 C         140.6435  145.3956  159.5636 C.ar    1  UNL1        0.1147
     17 N         140.4489  145.0451  161.0091 N.ar    1  UNL1       -0.2112
     18 O         139.1365  139.3092  167.9411 O.3     1  UNL1       -0.4754
     19 C         139.5555  139.8948  163.4991 C.ar    1  UNL1        0.0810
     20 C         140.7089  139.3640  164.2977 C.ar    1  UNL1        0.0099
     21 C         140.5692  139.1688  165.7783 C.ar    1  UNL1        0.0372
     22 C         139.2761  139.5044  166.4604 C.ar    1  UNL1        0.1408
     23 C         138.1227  140.0352  165.6618 C.ar    1  UNL1        0.0666
     24 C         138.2623  140.2304  164.1812 C.ar    1  UNL1        0.1475
     25 F         137.1088  140.7612  163.3825 F       1  UNL1       -0.2039
     26 O         140.3645  139.0391  161.1832 O.2     1  UNL1       -0.2701
     27 C         139.6951  140.0900  162.0184 C.2     1  UNL1        0.2480
     28 N         139.1653  141.3360  161.3729 N.am    1  UNL1       -0.3024
     29 H         138.7260  142.0258  161.9211 H       1  UNL1        0.1497
     30 C         139.3050  141.5313  159.8922 C.3     1  UNL1        0.0720
     31 C         138.8718  142.2055  158.6243 C.3     1  UNL1        0.0213
     32 C         139.9800  141.1951  158.5955 C.3     1  UNL1        0.0213
@<TRIPOS>BOND
     1    26    27    2
     2    27    28   am
     3    28    30    1
     4    30    31    1
     5    31    32    1
     6    27    19    1
     7    19    20   ar
     8    20    21   ar
     9    21    22   ar
    10    22    18    1
    11    18     1    1
    12     1     2    1
    13     2     3    1
    14     3     4    1
    15     4     5    1
    16     5     6    1
    17     6     7    1
    18     7     8    1
    19     8    11    1
    20    11    12   ar
    21    12    13   ar
    22    13    14   ar
    23    14    15    1
    24    14    16   ar
    25    16    17   ar
    26     8     9    1
    27     9    10    1
    28    22    23   ar
    29    23    24   ar
    30    24    25    1
    31    32    30    1
    32    24    19   ar
    33     4     2    1
    34    10     5    1
    35    17    11   ar
    36    28    29    1
@<TRIPOS>MOLECULE
*****
 32 36 0 0 0
SMALL
GASTEIGER

@<TRIPOS>ATOM
      1 C         139.0779  140.2162  157.7689 C.3     1  UNL1        0.2053
      2 C         139.0054  141.4155  158.6671 C.3     1  UNL1        0.0438
      3 C         138.8227  142.8931  158.8488 C.3     1  UNL1        0.0038
      4 C         139.0625  142.0149  160.0409 C.3     1  UNL1        0.0038
      5 C         139.2340  141.8539  161.5223 C.3     1  UNL1        0.0035
      6 C         140.6047  141.9084  162.1290 C.3     1  UNL1        0.0216
      7 C         140.7762  141.7474  163.6104 C.3     1  UNL1        0.0936
      8 N         139.5769  141.5319  164.4852 N.pl3   1  UNL1       -0.2782
      9 C         138.2061  141.4775  163.8785 C.3     1  UNL1        0.0936
     10 C         138.0347  141.6385  162.3970 C.3     1  UNL1        0.0216
     11 C         139.7483  141.3709  165.9666 C.ar    1  UNL1        0.2202
     12 N         140.3277  142.4898  166.7806 N.ar    1  UNL1       -0.2112
     13 C         140.4992  142.3288  168.2620 C.ar    1  UNL1        0.1147
     14 C         140.0913  141.0489  168.9295 C.ar    1  UNL1        0.0960
     15 CL        140.2627  140.8879  170.4109 Cl      1  UNL1       -0.0790
     16 C         139.5119  139.9301  168.1156 C.ar    1  UNL1        0.1147
     17 N         139.3404  140.0911  166.6341 N.ar    1  UNL1       -0.2112
     18 O         139.0820  138.8369  158.3583 O.3     1  UNL1       -0.4754
     19 C         140.8411  138.1401  162.4412 C.ar    1  UNL1        0.0810
     20 C         141.7414  138.4187  161.2743 C.ar    1  UNL1        0.0099
     21 C         141.1550  138.6510  159.9133 C.ar    1  UNL1        0.0372
     22 C         139.6684  138.6046  159.7194 C.ar    1  UNL1        0.1408
     23 C         138.7681  138.3260  160.8863 C.ar    1  UNL1        0.0666
     24 C         139.3545  138.0938  162.2472 C.ar    1  UNL1        0.1475
     25 F         138.4542  137.8151  163.4143 F       1  UNL1       -0.2039
     26 O         140.9996  136.7187  164.6103 O.2     1  UNL1       -0.2701
     27 C         141.4275  137.9078  163.8022 C.2     1  UNL1        0.2480
     28 N         142.4418  138.8646  164.3551 N.am    1  UNL1       -0.3024
     29 H         142.7227  139.6450  163.8248 H       1  UNL1        0.1497
     30 C         143.0282  138.6323  165.7161 C.3     1  UNL1        0.0720
     31 C         144.0663  137.9958  166.5919 C.3     1  UNL1        0.0213
     32 C         143.0057  138.8665  167.1976 C.3     1  UNL1        0.0213
@<TRIPOS>BOND
     1    26    27    2
     2    27    28   am
     3    28    30    1
     4    30    31    1
     5    31    32    1
     6    27    19    1
     7    19    20   ar
     8    20    21   ar
     9    21    22   ar
    10    22    18    1
    11    18     1    1
    12     1     2    1
    13     2     3    1
    14     3     4    1
    15     4     5    1
    16     5     6    1
    17     6     7    1
    18     7     8    1
    19     8    11    1
    20    11    12   ar
    21    12    13   ar
    22    13    14   ar
    23    14    15    1
    24    14    16   ar
    25    16    17   ar
    26     8     9    1
    27     9    10    1
    28    22    23   ar
    29    23    24   ar
    30    24    25    1
    31    32    30    1
    32    24    19   ar
    33     4     2    1
    34    10     5    1
    35    17    11   ar
    36    28    29    1
@<TRIPOS>MOLECULE
*****
 32 36 0 0 0
SMALL
GASTEIGER

@<TRIPOS>ATOM
      1 C         139.5607  140.2983  168.4789 C.3     1  UNL1        0.2053
      2 C         138.7901  139.4713  167.4927 C.3     1  UNL1        0.0438
      3 C         137.6167  138.5950  167.1686 C.3     1  UNL1        0.0038
      4 C         138.6289  138.9152  166.1090 C.3     1  UNL1        0.0038
      5 C         139.1203  138.7791  164.6983 C.3     1  UNL1        0.0035
      6 C         138.6130  139.7071  163.6346 C.3     1  UNL1        0.0216
      7 C         139.1044  139.5710  162.2239 C.3     1  UNL1        0.0936
      8 N         140.1031  138.5068  161.8770 N.pl3   1  UNL1       -0.2782
      9 C         140.6103  137.5788  162.9407 C.3     1  UNL1        0.0936
     10 C         140.1189  137.7150  164.3514 C.3     1  UNL1        0.0216
     11 C         140.5944  138.3707  160.4663 C.ar    1  UNL1        0.2202
     12 N         142.0547  138.1568  160.1981 N.ar    1  UNL1       -0.2112
     13 C         142.5460  138.0207  158.7874 C.ar    1  UNL1        0.1147
     14 C         141.5771  138.0984  157.6449 C.ar    1  UNL1        0.0960
     15 CL        142.0685  137.9623  156.2343 Cl      1  UNL1       -0.0790
     16 C         140.1169  138.3123  157.9131 C.ar    1  UNL1        0.1147
     17 N         139.6256  138.4484  159.3239 N.ar    1  UNL1       -0.2112
     18 O         140.8402  140.9617  168.0635 O.3     1  UNL1       -0.4754
     19 C         141.1433  142.9417  164.0339 C.ar    1  UNL1        0.0810
     20 C         141.8425  141.6383  164.2836 C.ar    1  UNL1        0.0099
     21 C         141.7415  140.9784  165.6268 C.ar    1  UNL1        0.0372
     22 C         140.9413  141.6217  166.7203 C.ar    1  UNL1        0.1408
     23 C         140.2421  142.9251  166.4706 C.ar    1  UNL1        0.0666
     24 C         140.3431  143.5850  165.1274 C.ar    1  UNL1        0.1475
     25 F         139.6439  144.8884  164.8776 F       1  UNL1       -0.2039
     26 O         142.4780  144.3726  162.3247 O.2     1  UNL1       -0.2701
     27 C         141.2443  143.6017  162.6907 C.2     1  UNL1        0.2480
     28 N         140.1118  143.4908  161.7135 N.am    1  UNL1       -0.3024
     29 H         139.3021  142.9849  161.9537 H       1  UNL1        0.1497
     30 C         140.2128  144.1509  160.3702 C.3     1  UNL1        0.0720
     31 C         140.3512  144.0494  158.8801 C.3     1  UNL1        0.0213
     32 C         140.2494  145.3955  159.5339 C.3     1  UNL1        0.0213
@<TRIPOS>BOND
     1    26    27    2
     2    27    28   am
     3    28    30    1
     4    30    31    1
     5    31    32    1
     6    27    19    1
     7    19    20   ar
     8    20    21   ar
     9    21    22   ar
    10    22    18    1
    11    18     1    1
    12     1     2    1
    13     2     3    1
    14     3     4    1
    15     4     5    1
    16     5     6    1
    17     6     7    1
    18     7     8    1
    19     8    11    1
    20    11    12   ar
    21    12    13   ar
    22    13    14   ar
    23    14    15    1
    24    14    16   ar
    25    16    17   ar
    26     8     9    1
    27     9    10    1
    28    22    23   ar
    29    23    24   ar
    30    24    25    1
    31    32    30    1
    32    24    19   ar
    33     4     2    1
    34    10     5    1
    35    17    11   ar
    36    28    29    1
