@<TRIPOS>MOLECULE
*****
 25 27 0 0 0
SMALL
GASTEIGER

@<TRIPOS>ATOM
      1 C         142.4058  139.9409  165.7131 C.ar    1  UNL1        0.0727
      2 C         142.7648  138.9996  166.8244 C.ar    1  UNL1        0.0252
      3 C         142.5657  139.7202  168.1248 C.ar    1  UNL1        0.0830
      4 C         142.7611  139.2929  169.5493 C.ar    1  UNL1        0.0208
      5 C         142.4744  140.2522  170.6661 C.ar    1  UNL1        0.0240
      6 C         141.9923  141.6390  170.3585 C.ar    1  UNL1        0.1206
      7 N         141.7970  142.0663  168.9340 N.ar    1  UNL1       -0.1636
      8 N         142.0837  141.1069  167.8172 N.ar    1  UNL1       -0.2295
      9 C         141.9849  141.2433  166.3266 C.ar    1  UNL1        0.0871
     10 C         141.5427  142.4673  165.5807 C.ar    1  UNL1        0.0175
     11 C         142.5282  143.2382  164.7533 C.ar    1  UNL1        0.0015
     12 C         142.0860  144.4622  164.0073 C.ar    1  UNL1       -0.0003
     13 C         140.6584  144.9152  164.0887 C.ar    1  UNL1       -0.0043
     14 C         139.6729  144.1442  164.9161 C.ar    1  UNL1       -0.0218
     15 C         138.2453  144.5972  164.9975 C.3     1  UNL1        0.0310
     16 C         140.1151  142.9203  165.6620 C.ar    1  UNL1       -0.0028
     17 N         143.7611  139.7227  163.5073 N.am    1  UNL1       -0.2735
     18 C         142.4586  139.6337  164.2458 C.2     1  UNL1        0.2506
     19 O         141.2088  139.2377  163.5171 O.2     1  UNL1       -0.2699
     20 C         143.8903  137.9917  161.5741 C.3     1  UNL1        0.0233
     21 C         143.8138  139.4155  162.0400 C.3     1  UNL1        0.0939
     22 C         145.0110  140.1188  164.2360 C.3     1  UNL1        0.1254
     23 C         145.5676  141.5021  164.0732 C.3     1  UNL1        0.1586
     24 O         146.4230  141.8315  162.8858 O.3     1  UNL1       -0.3802
     25 H         147.2507  141.3281  162.9340 H       1  UNL1        0.2105
@<TRIPOS>BOND
     1    20    21    1
     2    21    17    1
     3    17    22    1
     4    22    23    1
     5    23    24    1
     6    17    18   am
     7    18    19    2
     8    18     1    1
     9     1     2   ar
    10     2     3   ar
    11     3     4   ar
    12     4     5   ar
    13     5     6   ar
    14     6     7   ar
    15     7     8   ar
    16     8     9   ar
    17     9    10    1
    18    10    11   ar
    19    11    12   ar
    20    12    13   ar
    21    13    14   ar
    22    14    15    1
    23    14    16   ar
    24     9     1   ar
    25    16    10   ar
    26     8     3   ar
    27    24    25    1
@<TRIPOS>MOLECULE
*****
 25 27 0 0 0
SMALL
GASTEIGER

@<TRIPOS>ATOM
      1 C         140.1864  139.4048  166.0039 C.ar    1  UNL1        0.0727
      2 C         139.1887  139.4901  167.1207 C.ar    1  UNL1        0.0252
      3 C         139.8316  140.2214  168.2617 C.ar    1  UNL1        0.0830
      4 C         139.3269  140.6007  169.6224 C.ar    1  UNL1        0.0208
      5 C         140.2173  141.3468  170.5714 C.ar    1  UNL1        0.0240
      6 C         141.6123  141.7135  170.1597 C.ar    1  UNL1        0.1206
      7 N         142.1169  141.3342  168.7991 N.ar    1  UNL1       -0.1636
      8 N         141.2266  140.5881  167.8501 N.ar    1  UNL1       -0.2295
      9 C         141.4459  140.0834  166.4547 C.ar    1  UNL1        0.0871
     10 C         142.7038  140.2314  165.6511 C.ar    1  UNL1        0.0175
     11 C         143.6109  139.0531  165.4540 C.ar    1  UNL1        0.0015
     12 C         144.8689  139.2011  164.6505 C.ar    1  UNL1       -0.0003
     13 C         145.2197  140.5273  164.0440 C.ar    1  UNL1       -0.0043
     14 C         144.3127  141.7056  164.2410 C.ar    1  UNL1       -0.0218
     15 C         144.6635  143.0319  163.6345 C.3     1  UNL1        0.0310
     16 C         143.0547  141.5576  165.0446 C.ar    1  UNL1       -0.0028
     17 N         139.4703  139.5701  163.5119 N.am    1  UNL1       -0.2735
     18 C         139.9637  138.7550  164.6704 C.2     1  UNL1        0.2506
     19 O         140.2345  137.2901  164.4953 O.2     1  UNL1       -0.2699
     20 C         137.9308  138.2712  161.8710 C.3     1  UNL1        0.0233
     21 C         139.2477  138.9204  162.1784 C.3     1  UNL1        0.0939
     22 C         139.1996  141.0351  163.6869 C.3     1  UNL1        0.1254
     23 C         137.8292  141.5031  164.0779 C.3     1  UNL1        0.1586
     24 O         136.6791  141.3309  163.1303 O.3     1  UNL1       -0.3802
     25 H         136.8213  141.8830  162.3455 H       1  UNL1        0.2105
@<TRIPOS>BOND
     1    20    21    1
     2    21    17    1
     3    17    22    1
     4    22    23    1
     5    23    24    1
     6    17    18   am
     7    18    19    2
     8    18     1    1
     9     1     2   ar
    10     2     3   ar
    11     3     4   ar
    12     4     5   ar
    13     5     6   ar
    14     6     7   ar
    15     7     8   ar
    16     8     9   ar
    17     9    10    1
    18    10    11   ar
    19    11    12   ar
    20    12    13   ar
    21    13    14   ar
    22    14    15    1
    23    14    16   ar
    24     9     1   ar
    25    16    10   ar
    26     8     3   ar
    27    24    25    1
@<TRIPOS>MOLECULE
*****
 25 27 0 0 0
SMALL
GASTEIGER

@<TRIPOS>ATOM
      1 C         143.2706  140.0165  165.5185 C.ar    1  UNL1        0.0727
      2 C         143.2054  138.9962  166.6162 C.ar    1  UNL1        0.0252
      3 C         142.6949  139.6765  167.8517 C.ar    1  UNL1        0.0830
      4 C         142.4257  139.1702  169.2378 C.ar    1  UNL1        0.0208
      5 C         141.9062  140.1047  170.2898 C.ar    1  UNL1        0.0240
      6 C         141.6558  141.5454  169.9558 C.ar    1  UNL1        0.1206
      7 N         141.9250  142.0517  168.5697 N.ar    1  UNL1       -0.1636
      8 N         142.4446  141.1173  167.5177 N.ar    1  UNL1       -0.2295
      9 C         142.8003  141.3274  166.0757 C.ar    1  UNL1        0.0871
     10 C         142.7029  142.6212  165.3231 C.ar    1  UNL1        0.0175
     11 C         143.9437  143.4081  165.0205 C.ar    1  UNL1        0.0015
     12 C         143.8463  144.7020  164.2678 C.ar    1  UNL1       -0.0003
     13 C         142.5082  145.2090  163.8178 C.ar    1  UNL1       -0.0043
     14 C         141.2676  144.4221  164.1205 C.ar    1  UNL1       -0.0218
     15 C         139.9295  144.9291  163.6704 C.3     1  UNL1        0.0310
     16 C         141.3650  143.1283  164.8731 C.ar    1  UNL1       -0.0028
     17 N         142.7271  139.4073  163.0521 N.am    1  UNL1       -0.2735
     18 C         143.7260  139.7693  164.1109 C.2     1  UNL1        0.2506
     19 O         145.1803  139.8840  163.7620 O.2     1  UNL1       -0.2699
     20 C         143.8784  137.8779  161.2955 C.3     1  UNL1        0.0233
     21 C         143.1825  139.1601  161.6444 C.3     1  UNL1        0.0939
     22 C         141.2727  139.2926  163.4009 C.3     1  UNL1        0.1254
     23 C         140.5195  138.0375  163.0730 C.3     1  UNL1        0.1586
     24 O         141.2219  136.7123  163.1009 O.3     1  UNL1       -0.3802
     25 H         141.8924  136.6870  162.4004 H       1  UNL1        0.2105
@<TRIPOS>BOND
     1    20    21    1
     2    21    17    1
     3    17    22    1
     4    22    23    1
     5    23    24    1
     6    17    18   am
     7    18    19    2
     8    18     1    1
     9     1     2   ar
    10     2     3   ar
    11     3     4   ar
    12     4     5   ar
    13     5     6   ar
    14     6     7   ar
    15     7     8   ar
    16     8     9   ar
    17     9    10    1
    18    10    11   ar
    19    11    12   ar
    20    12    13   ar
    21    13    14   ar
    22    14    15    1
    23    14    16   ar
    24     9     1   ar
    25    16    10   ar
    26     8     3   ar
    27    24    25    1
@<TRIPOS>MOLECULE
*****
 25 27 0 0 0
SMALL
GASTEIGER

@<TRIPOS>ATOM
      1 C         140.8120  140.2595  165.9942 C.ar    1  UNL1        0.0727
      2 C         139.9684  139.6265  167.0608 C.ar    1  UNL1        0.0252
      3 C         139.8909  140.5792  168.2168 C.ar    1  UNL1        0.0830
      4 C         139.1985  140.4920  169.5446 C.ar    1  UNL1        0.0208
      5 C         139.3019  141.6266  170.5202 C.ar    1  UNL1        0.0240
      6 C         140.0976  142.8485  170.1681 C.ar    1  UNL1        0.1206
      7 N         140.7900  142.9356  168.8403 N.ar    1  UNL1       -0.1636
      8 N         140.6866  141.8010  167.8647 N.ar    1  UNL1       -0.2295
      9 C         141.2559  141.6034  166.4910 C.ar    1  UNL1        0.0871
     10 C         142.1177  142.5785  165.7452 C.ar    1  UNL1        0.0175
     11 C         143.6002  142.5969  165.9738 C.ar    1  UNL1        0.0015
     12 C         144.4620  143.5721  165.2279 C.ar    1  UNL1       -0.0003
     13 C         143.8415  144.5288  164.2535 C.ar    1  UNL1       -0.0043
     14 C         142.3591  144.5105  164.0249 C.ar    1  UNL1       -0.0218
     15 C         141.7386  145.4672  163.0505 C.3     1  UNL1        0.0310
     16 C         141.4973  143.5353  164.7708 C.ar    1  UNL1       -0.0028
     17 N         140.3011  139.9523  163.4655 N.am    1  UNL1       -0.2735
     18 C         141.1521  139.6547  164.6643 C.2     1  UNL1        0.2506
     19 O         142.3431  138.7524  164.5332 O.2     1  UNL1       -0.2699
     20 C         140.2167  137.9439  161.8194 C.3     1  UNL1        0.0233
     21 C         140.6411  139.3475  162.1356 C.3     1  UNL1        0.0939
     22 C         139.1100  140.8547  163.5965 C.3     1  UNL1        0.1254
     23 C         137.7710  140.4077  163.0893 C.3     1  UNL1        0.1586
     24 O         136.6102  141.3577  163.0984 O.3     1  UNL1       -0.3802
     25 H         136.3739  141.5707  164.0148 H       1  UNL1        0.2105
@<TRIPOS>BOND
     1    20    21    1
     2    21    17    1
     3    17    22    1
     4    22    23    1
     5    23    24    1
     6    17    18   am
     7    18    19    2
     8    18     1    1
     9     1     2   ar
    10     2     3   ar
    11     3     4   ar
    12     4     5   ar
    13     5     6   ar
    14     6     7   ar
    15     7     8   ar
    16     8     9   ar
    17     9    10    1
    18    10    11   ar
    19    11    12   ar
    20    12    13   ar
    21    13    14   ar
    22    14    15    1
    23    14    16   ar
    24     9     1   ar
    25    16    10   ar
    26     8     3   ar
    27    24    25    1
@<TRIPOS>MOLECULE
*****
 25 27 0 0 0
SMALL
GASTEIGER

@<TRIPOS>ATOM
      1 C         139.3170  140.6850  165.6914 C.ar    1  UNL1        0.0727
      2 C         139.1413  139.8187  166.9032 C.ar    1  UNL1        0.0252
      3 C         139.7663  140.5227  168.0710 C.ar    1  UNL1        0.0830
      4 C         139.8963  140.1468  169.5172 C.ar    1  UNL1        0.0208
      5 C         140.5884  141.0723  170.4734 C.ar    1  UNL1        0.0240
      6 C         141.1505  142.3738  169.9833 C.ar    1  UNL1        0.1206
      7 N         141.0205  142.7497  168.5370 N.ar    1  UNL1       -0.1636
      8 N         140.3284  141.8242  167.5809 N.ar    1  UNL1       -0.2295
      9 C         140.0507  141.9245  166.1102 C.ar    1  UNL1        0.0871
     10 C         140.4386  143.0642  165.2155 C.ar    1  UNL1        0.0175
     11 C         139.3804  143.9513  164.6292 C.ar    1  UNL1        0.0015
     12 C         139.7684  145.0910  163.7345 C.ar    1  UNL1       -0.0003
     13 C         141.2144  145.3437  163.4260 C.ar    1  UNL1       -0.0043
     14 C         142.2724  144.4567  164.0122 C.ar    1  UNL1       -0.0218
     15 C         143.7184  144.7095  163.7037 C.3     1  UNL1        0.0310
     16 C         141.8845  143.3170  164.9069 C.ar    1  UNL1       -0.0028
     17 N         139.7024  139.5512  163.3858 N.am    1  UNL1       -0.2735
     18 C         138.8424  140.3677  164.3043 C.2     1  UNL1        0.2506
     19 O         137.5078  140.8667  163.8357 O.2     1  UNL1       -0.2699
     20 C         138.2575  138.1117  161.7764 C.3     1  UNL1        0.0233
     21 C         139.2278  139.2338  161.9987 C.3     1  UNL1        0.0939
     22 C         141.0371  139.0520  163.8543 C.3     1  UNL1        0.1254
     23 C         141.2359  137.5918  164.1336 C.3     1  UNL1        0.1586
     24 O         141.2966  136.6126  162.9989 O.3     1  UNL1       -0.3802
     25 H         140.4344  136.5772  162.5559 H       1  UNL1        0.2105
@<TRIPOS>BOND
     1    20    21    1
     2    21    17    1
     3    17    22    1
     4    22    23    1
     5    23    24    1
     6    17    18   am
     7    18    19    2
     8    18     1    1
     9     1     2   ar
    10     2     3   ar
    11     3     4   ar
    12     4     5   ar
    13     5     6   ar
    14     6     7   ar
    15     7     8   ar
    16     8     9   ar
    17     9    10    1
    18    10    11   ar
    19    11    12   ar
    20    12    13   ar
    21    13    14   ar
    22    14    15    1
    23    14    16   ar
    24     9     1   ar
    25    16    10   ar
    26     8     3   ar
    27    24    25    1
@<TRIPOS>MOLECULE
*****
 25 27 0 0 0
SMALL
GASTEIGER

@<TRIPOS>ATOM
      1 C         141.7578  140.6443  166.5327 C.ar    1  UNL1        0.0727
      2 C         142.0356  139.1704  166.5139 C.ar    1  UNL1        0.0252
      3 C         141.5979  138.6331  165.1835 C.ar    1  UNL1        0.0830
      4 C         141.6278  137.2516  164.6000 C.ar    1  UNL1        0.0208
      5 C         141.1094  137.0121  163.2130 C.ar    1  UNL1        0.0240
      6 C         140.5611  138.1540  162.4096 C.ar    1  UNL1        0.1206
      7 N         140.5312  139.5354  162.9931 N.ar    1  UNL1       -0.1636
      8 N         141.0497  139.7750  164.3801 N.ar    1  UNL1       -0.2295
      9 C         141.1485  141.0180  165.2140 C.ar    1  UNL1        0.0871
     10 C         140.7142  142.3932  164.8014 C.ar    1  UNL1        0.0175
     11 C         141.3687  143.0672  163.6320 C.ar    1  UNL1        0.0015
     12 C         140.9344  144.4424  163.2195 C.ar    1  UNL1       -0.0003
     13 C         139.8456  145.1436  163.9763 C.ar    1  UNL1       -0.0043
     14 C         139.1912  144.4697  165.1457 C.ar    1  UNL1       -0.0218
     15 C         138.1024  145.1709  165.9025 C.3     1  UNL1        0.0310
     16 C         139.6255  143.0945  165.5582 C.ar    1  UNL1       -0.0028
     17 N         141.0941  141.6550  168.8322 N.am    1  UNL1       -0.2735
     18 C         142.0399  141.5802  167.6705 C.2     1  UNL1        0.2506
     19 O         143.2678  142.4414  167.6464 O.2     1  UNL1       -0.2699
     20 C         140.7033  143.9306  170.0236 C.3     1  UNL1        0.0233
     21 C         141.3761  142.5910  169.9700 C.3     1  UNL1        0.0939
     22 C         139.8661  140.7938  168.8563 C.3     1  UNL1        0.1254
     23 C         139.1576  140.5339  170.1526 C.3     1  UNL1        0.1586
     24 O         139.7189  139.5423  171.1283 O.3     1  UNL1       -0.3802
     25 H         139.6829  138.6531  170.7425 H       1  UNL1        0.2105
@<TRIPOS>BOND
     1    20    21    1
     2    21    17    1
     3    17    22    1
     4    22    23    1
     5    23    24    1
     6    17    18   am
     7    18    19    2
     8    18     1    1
     9     1     2   ar
    10     2     3   ar
    11     3     4   ar
    12     4     5   ar
    13     5     6   ar
    14     6     7   ar
    15     7     8   ar
    16     8     9   ar
    17     9    10    1
    18    10    11   ar
    19    11    12   ar
    20    12    13   ar
    21    13    14   ar
    22    14    15    1
    23    14    16   ar
    24     9     1   ar
    25    16    10   ar
    26     8     3   ar
    27    24    25    1
@<TRIPOS>MOLECULE
*****
 25 27 0 0 0
SMALL
GASTEIGER

@<TRIPOS>ATOM
      1 C         140.6941  140.3547  165.7820 C.ar    1  UNL1        0.0727
      2 C         140.0139  139.6796  166.9360 C.ar    1  UNL1        0.0252
      3 C         139.9564  140.6542  168.0748 C.ar    1  UNL1        0.0830
      4 C         139.4004  140.5435  169.4635 C.ar    1  UNL1        0.0208
      5 C         139.4890  141.7102  170.4020 C.ar    1  UNL1        0.0240
      6 C         140.1337  142.9876  169.9519 C.ar    1  UNL1        0.1206
      7 N         140.6897  143.0983  168.5632 N.ar    1  UNL1       -0.1636
      8 N         140.6011  141.9316  167.6246 N.ar    1  UNL1       -0.2295
      9 C         141.0570  141.7465  166.2076 C.ar    1  UNL1        0.0871
     10 C         141.7535  142.7729  165.3643 C.ar    1  UNL1        0.0175
     11 C         143.2442  142.9219  165.4427 C.ar    1  UNL1        0.0015
     12 C         143.9407  143.9484  164.5994 C.ar    1  UNL1       -0.0003
     13 C         143.1467  144.8259  163.6777 C.ar    1  UNL1       -0.0043
     14 C         141.6562  144.6770  163.5994 C.ar    1  UNL1       -0.0218
     15 C         140.8622  145.5546  162.6777 C.3     1  UNL1        0.0310
     16 C         140.9597  143.6505  164.4427 C.ar    1  UNL1       -0.0028
     17 N         142.3258  139.2024  164.1208 N.am    1  UNL1       -0.2735
     18 C         140.9640  139.7449  164.4383 C.2     1  UNL1        0.2506
     19 O         139.8720  139.6778  163.4122 O.2     1  UNL1       -0.2699
     20 C         143.9851  138.6081  162.2120 C.3     1  UNL1        0.0233
     21 C         142.5957  138.5927  162.7772 C.3     1  UNL1        0.0939
     22 C         143.4179  139.2695  165.1470 C.3     1  UNL1        0.1254
     23 C         143.5158  138.2139  166.2082 C.3     1  UNL1        0.1586
     24 O         143.3669  138.5873  167.6534 O.3     1  UNL1       -0.3802
     25 H         144.1082  139.1537  167.9190 H       1  UNL1        0.2105
@<TRIPOS>BOND
     1    20    21    1
     2    21    17    1
     3    17    22    1
     4    22    23    1
     5    23    24    1
     6    17    18   am
     7    18    19    2
     8    18     1    1
     9     1     2   ar
    10     2     3   ar
    11     3     4   ar
    12     4     5   ar
    13     5     6   ar
    14     6     7   ar
    15     7     8   ar
    16     8     9   ar
    17     9    10    1
    18    10    11   ar
    19    11    12   ar
    20    12    13   ar
    21    13    14   ar
    22    14    15    1
    23    14    16   ar
    24     9     1   ar
    25    16    10   ar
    26     8     3   ar
    27    24    25    1
@<TRIPOS>MOLECULE
*****
 25 27 0 0 0
SMALL
GASTEIGER

@<TRIPOS>ATOM
      1 C         141.3539  140.3053  164.4442 C.ar    1  UNL1        0.0727
      2 C         141.6376  140.6154  163.0043 C.ar    1  UNL1        0.0252
      3 C         142.4618  141.8676  162.9535 C.ar    1  UNL1        0.0830
      4 C         143.0360  142.6454  161.8066 C.ar    1  UNL1        0.0208
      5 C         143.8359  143.8870  162.0682 C.ar    1  UNL1        0.0240
      6 C         144.0616  144.3509  163.4767 C.ar    1  UNL1        0.1206
      7 N         143.4875  143.5731  164.6236 N.ar    1  UNL1       -0.1636
      8 N         142.6876  142.3315  164.3620 N.ar    1  UNL1       -0.2295
      9 C         142.0028  141.3659  165.2833 C.ar    1  UNL1        0.0871
     10 C         141.9724  141.4468  166.7808 C.ar    1  UNL1        0.0175
     11 C         142.7385  140.4518  167.6014 C.ar    1  UNL1        0.0015
     12 C         142.7080  140.5327  169.0989 C.ar    1  UNL1       -0.0003
     13 C         141.9115  141.6085  169.7759 C.ar    1  UNL1       -0.0043
     14 C         141.1454  142.6034  168.9553 C.ar    1  UNL1       -0.0218
     15 C         140.3489  143.6791  169.6323 C.3     1  UNL1        0.0310
     16 C         141.1759  142.5225  167.4578 C.ar    1  UNL1       -0.0028
     17 N         139.0944  139.2935  165.2323 N.am    1  UNL1       -0.2735
     18 C         140.5605  139.1394  164.9553 C.2     1  UNL1        0.2506
     19 O         141.2333  137.8194  165.1895 O.2     1  UNL1       -0.2699
     20 C         137.5348  138.2469  167.0274 C.3     1  UNL1        0.0233
     21 C         138.3011  138.1275  165.7434 C.3     1  UNL1        0.0939
     22 C         138.4216  140.6135  164.9981 C.3     1  UNL1        0.1254
     23 C         138.0350  141.0221  163.6076 C.3     1  UNL1        0.1586
     24 O         136.5966  141.2911  163.2774 O.3     1  UNL1       -0.3802
     25 H         136.0884  140.4683  163.3521 H       1  UNL1        0.2105
@<TRIPOS>BOND
     1    20    21    1
     2    21    17    1
     3    17    22    1
     4    22    23    1
     5    23    24    1
     6    17    18   am
     7    18    19    2
     8    18     1    1
     9     1     2   ar
    10     2     3   ar
    11     3     4   ar
    12     4     5   ar
    13     5     6   ar
    14     6     7   ar
    15     7     8   ar
    16     8     9   ar
    17     9    10    1
    18    10    11   ar
    19    11    12   ar
    20    12    13   ar
    21    13    14   ar
    22    14    15    1
    23    14    16   ar
    24     9     1   ar
    25    16    10   ar
    26     8     3   ar
    27    24    25    1
@<TRIPOS>MOLECULE
*****
 25 27 0 0 0
SMALL
GASTEIGER

@<TRIPOS>ATOM
      1 C         142.6371  142.6061  165.8494 C.ar    1  UNL1        0.0727
      2 C         143.5799  142.3949  166.9968 C.ar    1  UNL1        0.0252
      3 C         142.7657  142.2853  168.2518 C.ar    1  UNL1        0.0830
      4 C         143.1543  142.0734  169.6850 C.ar    1  UNL1        0.0208
      5 C         142.0967  142.0051  170.7465 C.ar    1  UNL1        0.0240
      6 C         140.6506  142.1486  170.3748 C.ar    1  UNL1        0.1206
      7 N         140.2620  142.3605  168.9416 N.ar    1  UNL1       -0.1636
      8 N         141.3196  142.4289  167.8801 N.ar    1  UNL1       -0.2295
      9 C         141.2401  142.6271  166.3954 C.ar    1  UNL1        0.0871
     10 C         139.9841  142.8136  165.5968 C.ar    1  UNL1        0.0175
     11 C         139.3029  144.1499  165.5715 C.ar    1  UNL1        0.0015
     12 C         138.0469  144.3364  164.7729 C.ar    1  UNL1       -0.0003
     13 C         137.4721  143.1868  163.9997 C.ar    1  UNL1       -0.0043
     14 C         138.1533  141.8506  164.0250 C.ar    1  UNL1       -0.0218
     15 C         137.5784  140.7010  163.2518 C.3     1  UNL1        0.0310
     16 C         139.4093  141.6641  164.8236 C.ar    1  UNL1       -0.0028
     17 N         143.0982  141.5672  163.5132 N.am    1  UNL1       -0.2735
     18 C         143.0233  142.7679  164.4091 C.2     1  UNL1        0.2506
     19 O         143.3347  144.1304  163.8646 O.2     1  UNL1       -0.2699
     20 C         144.9026  142.0556  161.7088 C.3     1  UNL1        0.0233
     21 C         143.4845  141.7290  162.0729 C.3     1  UNL1        0.0939
     22 C         142.7869  140.2045  164.0577 C.3     1  UNL1        0.1254
     23 C         143.8960  139.3204  164.5455 C.3     1  UNL1        0.1586
     24 O         145.2626  139.4261  163.9360 O.3     1  UNL1       -0.3802
     25 H         145.2258  139.1438  163.0087 H       1  UNL1        0.2105
@<TRIPOS>BOND
     1    20    21    1
     2    21    17    1
     3    17    22    1
     4    22    23    1
     5    23    24    1
     6    17    18   am
     7    18    19    2
     8    18     1    1
     9     1     2   ar
    10     2     3   ar
    11     3     4   ar
    12     4     5   ar
    13     5     6   ar
    14     6     7   ar
    15     7     8   ar
    16     8     9   ar
    17     9    10    1
    18    10    11   ar
    19    11    12   ar
    20    12    13   ar
    21    13    14   ar
    22    14    15    1
    23    14    16   ar
    24     9     1   ar
    25    16    10   ar
    26     8     3   ar
    27    24    25    1
