@<TRIPOS>MOLECULE
*****
 28 30 0 0 0
SMALL
GASTEIGER

@<TRIPOS>ATOM
      1 C         143.4281  144.0520  162.7585 C.3     1  UNL1        0.1892
      2 C         142.2985  143.8841  163.7310 C.ar    1  UNL1        0.1099
      3 C         141.0158  144.6617  163.7353 C.ar    1  UNL1        0.0337
      4 C         140.1778  144.1674  164.8769 C.ar    1  UNL1        0.0621
      5 C         138.8144  144.6682  165.2515 C.3     1  UNL1        0.0522
      6 N         140.9426  143.0842  165.5783 N.ar    1  UNL1       -0.2339
      7 N         142.2533  142.9092  164.8700 N.ar    1  UNL1       -0.1673
      8 C         140.4783  142.3117  166.7773 C.ar    1  UNL1        0.0833
      9 C         139.9792  140.9063  166.6168 C.ar    1  UNL1        0.0201
     10 C         139.5149  140.1338  167.8159 C.ar    1  UNL1        0.0138
     11 C         139.5497  140.7666  169.1754 C.ar    1  UNL1        0.0683
     12 CL        139.0854  139.9941  170.3744 Cl      1  UNL1       -0.0814
     13 C         140.0489  142.1721  169.3359 C.ar    1  UNL1        0.0697
     14 CL        140.0838  142.8050  170.6953 Cl      1  UNL1       -0.0813
     15 C         140.5132  142.9445  168.1368 C.ar    1  UNL1        0.0314
     16 O         143.9835  142.8578  162.0407 O.3     1  UNL1       -0.3473
     17 C         145.2684  142.2362  162.5018 C.3     1  UNL1        0.1441
     18 C         145.3144  141.4832  163.7983 C.3     1  UNL1        0.0494
     19 C         145.0871  140.0007  163.8130 C.3     1  UNL1        0.0748
     20 C         138.6227  137.8929  162.8036 C.3     1  UNL1        0.0948
     21 C         139.4995  137.8244  164.0187 C.2     1  UNL1        0.2262
     22 O         138.9793  137.2118  165.2852 O.2     1  UNL1       -0.2749
     23 N         140.8964  138.3684  163.9673 N.am    1  UNL1       -0.2767
     24 C         141.4165  138.9811  162.7008 C.3     1  UNL1        0.1107
     25 C         142.8134  139.5251  162.6494 C.3     1  UNL1        0.0939
     26 N         143.6902  139.4566  163.8645 N.3     1  UNL1       -0.2697
     27 C         143.1700  138.8440  165.1310 C.3     1  UNL1        0.0939
     28 C         141.7731  138.2999  165.1824 C.3     1  UNL1        0.1107
@<TRIPOS>BOND
     1    20    21    1
     2    21    22    2
     3    21    23   am
     4    23    24    1
     5    24    25    1
     6    25    26    1
     7    26    19    1
     8    19    18    1
     9    18    17    1
    10    17    16    1
    11    16     1    1
    12     1     2    1
    13     2     3   ar
    14     3     4   ar
    15     4     5    1
    16     4     6   ar
    17     6     8    1
    18     8     9   ar
    19     9    10   ar
    20    10    11   ar
    21    11    12    1
    22    11    13   ar
    23    13    14    1
    24    13    15   ar
    25     6     7   ar
    26    26    27    1
    27    27    28    1
    28    28    23    1
    29     7     2   ar
    30    15     8   ar
@<TRIPOS>MOLECULE
*****
 28 30 0 0 0
SMALL
GASTEIGER

@<TRIPOS>ATOM
      1 C         138.2067  142.2374  160.9033 C.3     1  UNL1        0.1892
      2 C         138.6281  142.6065  162.2948 C.ar    1  UNL1        0.1099
      3 C         138.2077  143.8345  163.0467 C.ar    1  UNL1        0.0337
      4 C         138.8636  143.7994  164.3953 C.ar    1  UNL1        0.0621
      5 C         138.7192  144.8326  165.4731 C.3     1  UNL1        0.0522
      6 N         139.6893  142.5498  164.4767 N.ar    1  UNL1       -0.2339
      7 N         139.5438  141.8125  163.1786 N.ar    1  UNL1       -0.1673
      8 C         140.5156  142.1139  165.6504 C.ar    1  UNL1        0.0833
      9 C         141.9549  142.5246  165.7482 C.ar    1  UNL1        0.0201
     10 C         142.7811  142.0887  166.9218 C.ar    1  UNL1        0.0138
     11 C         142.1680  141.2421  167.9976 C.ar    1  UNL1        0.0683
     12 CL        142.9943  140.8062  169.1712 Cl      1  UNL1       -0.0814
     13 C         140.7286  140.8314  167.8998 C.ar    1  UNL1        0.0697
     14 CL        140.1155  139.9848  168.9756 Cl      1  UNL1       -0.0813
     15 C         139.9025  141.2673  166.7262 C.ar    1  UNL1        0.0314
     16 O         138.2834  140.8094  160.4504 O.3     1  UNL1       -0.3473
     17 C         137.3534  139.7869  161.0330 C.3     1  UNL1        0.1441
     18 C         137.8873  138.4621  161.4912 C.3     1  UNL1        0.0494
     19 C         139.2865  138.0542  161.1367 C.3     1  UNL1        0.0748
     20 C         143.7342  138.2463  166.3742 C.3     1  UNL1        0.0948
     21 C         143.7514  138.9418  165.0454 C.2     1  UNL1        0.2262
     22 O         144.8847  139.8593  164.6937 O.2     1  UNL1       -0.2749
     23 N         142.6351  138.7199  164.0682 N.am    1  UNL1       -0.2767
     24 C         141.5018  137.8025  164.4199 C.3     1  UNL1        0.1107
     25 C         140.3856  137.5806  163.4427 C.3     1  UNL1        0.0939
     26 N         140.4027  138.2761  162.1139 N.3     1  UNL1       -0.2697
     27 C         141.5361  139.1936  161.7622 C.3     1  UNL1        0.0939
     28 C         142.6523  139.4155  162.7393 C.3     1  UNL1        0.1107
@<TRIPOS>BOND
     1    20    21    1
     2    21    22    2
     3    21    23   am
     4    23    24    1
     5    24    25    1
     6    25    26    1
     7    26    19    1
     8    19    18    1
     9    18    17    1
    10    17    16    1
    11    16     1    1
    12     1     2    1
    13     2     3   ar
    14     3     4   ar
    15     4     5    1
    16     4     6   ar
    17     6     8    1
    18     8     9   ar
    19     9    10   ar
    20    10    11   ar
    21    11    12    1
    22    11    13   ar
    23    13    14    1
    24    13    15   ar
    25     6     7   ar
    26    26    27    1
    27    27    28    1
    28    28    23    1
    29     7     2   ar
    30    15     8   ar
@<TRIPOS>MOLECULE
*****
 28 30 0 0 0
SMALL
GASTEIGER

@<TRIPOS>ATOM
      1 C         137.8463  144.1834  163.2633 C.3     1  UNL1        0.1892
      2 C         138.2763  143.0398  164.1336 C.ar    1  UNL1        0.1099
      3 C         137.8723  141.6049  163.9673 C.ar    1  UNL1        0.0337
      4 C         138.5321  140.8087  165.0539 C.ar    1  UNL1        0.0621
      5 C         138.4028  139.3293  165.2656 C.3     1  UNL1        0.0522
      6 N         139.3439  141.7516  165.8917 N.ar    1  UNL1       -0.2339
      7 N         139.1858  143.1305  165.3229 N.ar    1  UNL1       -0.1673
      8 C         140.1690  141.3807  167.0883 C.ar    1  UNL1        0.0833
      9 C         139.7133  140.2820  168.0022 C.ar    1  UNL1        0.0201
     10 C         140.5383  139.9111  169.1987 C.ar    1  UNL1        0.0138
     11 C         141.8191  140.6389  169.4814 C.ar    1  UNL1        0.0683
     12 CL        142.6442  140.2680  170.6780 Cl      1  UNL1       -0.0814
     13 C         142.2749  141.7376  168.5675 C.ar    1  UNL1        0.0697
     14 CL        143.5556  142.4654  168.8501 Cl      1  UNL1       -0.0813
     15 C         141.4498  142.1085  167.3710 C.ar    1  UNL1        0.0314
     16 O         138.6736  144.5733  162.0743 O.3     1  UNL1       -0.3473
     17 C         139.7041  145.6560  162.2003 C.3     1  UNL1        0.1441
     18 C         141.0728  145.3317  162.7214 C.3     1  UNL1        0.0494
     19 C         141.8786  144.2389  162.0839 C.3     1  UNL1        0.0748
     20 C         143.2221  138.7015  165.9286 C.3     1  UNL1        0.0948
     21 C         142.3094  138.8821  164.7521 C.2     1  UNL1        0.2262
     22 O         141.5044  137.7235  164.2426 O.2     1  UNL1       -0.2749
     23 N         142.2017  140.2213  164.0851 N.am    1  UNL1       -0.2767
     24 C         143.0067  141.3799  164.5946 C.3     1  UNL1        0.1107
     25 C         142.8990  142.7191  163.9275 C.3     1  UNL1        0.0939
     26 N         141.9863  142.8997  162.7510 N.3     1  UNL1       -0.2697
     27 C         141.1813  141.7411  162.2415 C.3     1  UNL1        0.0939
     28 C         141.2890  140.4019  162.9085 C.3     1  UNL1        0.1107
@<TRIPOS>BOND
     1    20    21    1
     2    21    22    2
     3    21    23   am
     4    23    24    1
     5    24    25    1
     6    25    26    1
     7    26    19    1
     8    19    18    1
     9    18    17    1
    10    17    16    1
    11    16     1    1
    12     1     2    1
    13     2     3   ar
    14     3     4   ar
    15     4     5    1
    16     4     6   ar
    17     6     8    1
    18     8     9   ar
    19     9    10   ar
    20    10    11   ar
    21    11    12    1
    22    11    13   ar
    23    13    14    1
    24    13    15   ar
    25     6     7   ar
    26    26    27    1
    27    27    28    1
    28    28    23    1
    29     7     2   ar
    30    15     8   ar
@<TRIPOS>MOLECULE
*****
 28 30 0 0 0
SMALL
GASTEIGER

@<TRIPOS>ATOM
      1 C         138.0357  142.6781  162.7868 C.3     1  UNL1        0.1892
      2 C         138.5000  141.5970  163.7171 C.ar    1  UNL1        0.1099
      3 C         138.1613  140.1394  163.6139 C.ar    1  UNL1        0.0337
      4 C         138.8366  139.4252  164.7469 C.ar    1  UNL1        0.0621
      5 C         138.7679  137.9532  165.0273 C.3     1  UNL1        0.0522
      6 N         139.5927  140.4414  165.5504 N.ar    1  UNL1       -0.2339
      7 N         139.3847  141.7837  164.9139 N.ar    1  UNL1       -0.1673
      8 C         140.4129  140.1641  166.7754 C.ar    1  UNL1        0.0833
      9 C         141.8641  139.8091  166.6418 C.ar    1  UNL1        0.0201
     10 C         142.6843  139.5318  167.8667 C.ar    1  UNL1        0.0138
     11 C         142.0532  139.6095  169.2253 C.ar    1  UNL1        0.0683
     12 CL        142.8733  139.3322  170.4502 Cl      1  UNL1       -0.0814
     13 C         140.6019  139.9645  169.3590 C.ar    1  UNL1        0.0697
     14 CL        139.9707  140.0422  170.7174 Cl      1  UNL1       -0.0813
     15 C         139.7818  140.2418  168.1340 C.ar    1  UNL1        0.0314
     16 O         137.9730  144.0998  163.2609 O.3     1  UNL1       -0.3473
     17 C         139.2185  144.9351  163.2935 C.3     1  UNL1        0.1441
     18 C         139.5825  145.7852  162.1124 C.3     1  UNL1        0.0494
     19 C         140.6538  145.3332  161.1648 C.3     1  UNL1        0.0748
     20 C         145.7246  141.4815  163.7534 C.3     1  UNL1        0.0948
     21 C         144.5758  141.1205  162.8590 C.2     1  UNL1        0.2262
     22 O         144.4075  139.7063  162.3883 O.2     1  UNL1       -0.2749
     23 N         143.5953  142.1737  162.4355 N.am    1  UNL1       -0.2767
     24 C         143.7636  143.5879  162.9062 C.3     1  UNL1        0.1107
     25 C         142.7831  144.6411  162.4827 C.3     1  UNL1        0.0939
     26 N         141.6343  144.2800  161.5883 N.3     1  UNL1       -0.2697
     27 C         141.4660  142.8658  161.1176 C.3     1  UNL1        0.0939
     28 C         142.4465  141.8127  161.5411 C.3     1  UNL1        0.1107
@<TRIPOS>BOND
     1    20    21    1
     2    21    22    2
     3    21    23   am
     4    23    24    1
     5    24    25    1
     6    25    26    1
     7    26    19    1
     8    19    18    1
     9    18    17    1
    10    17    16    1
    11    16     1    1
    12     1     2    1
    13     2     3   ar
    14     3     4   ar
    15     4     5    1
    16     4     6   ar
    17     6     8    1
    18     8     9   ar
    19     9    10   ar
    20    10    11   ar
    21    11    12    1
    22    11    13   ar
    23    13    14    1
    24    13    15   ar
    25     6     7   ar
    26    26    27    1
    27    27    28    1
    28    28    23    1
    29     7     2   ar
    30    15     8   ar
@<TRIPOS>MOLECULE
*****
 28 30 0 0 0
SMALL
GASTEIGER

@<TRIPOS>ATOM
      1 C         138.1256  141.9393  161.7742 C.3     1  UNL1        0.1892
      2 C         139.0957  141.9341  162.9183 C.ar    1  UNL1        0.1099
      3 C         140.5768  142.1499  162.8194 C.ar    1  UNL1        0.0337
      4 C         141.1515  142.0613  164.2021 C.ar    1  UNL1        0.0621
      5 C         142.5980  142.2161  164.5673 C.3     1  UNL1        0.0522
      6 N         140.0254  141.7907  165.1556 N.ar    1  UNL1       -0.2339
      7 N         138.7549  141.7120  164.3621 N.ar    1  UNL1       -0.1673
      8 C         140.1484  141.6273  166.6416 C.ar    1  UNL1        0.0833
      9 C         140.0018  140.2693  167.2615 C.ar    1  UNL1        0.0201
     10 C         140.1248  140.1060  168.7475 C.ar    1  UNL1        0.0138
     11 C         140.3944  141.3007  169.6136 C.ar    1  UNL1        0.0683
     12 CL        140.5174  141.1373  171.0996 Cl      1  UNL1       -0.0814
     13 C         140.5410  142.6588  168.9937 C.ar    1  UNL1        0.0697
     14 CL        140.8106  143.8534  169.8597 Cl      1  UNL1       -0.0813
     15 C         140.4180  142.8220  167.5077 C.ar    1  UNL1        0.0314
     16 O         137.3861  140.6855  161.4122 O.3     1  UNL1       -0.3473
     17 C         137.7015  139.9723  160.1308 C.3     1  UNL1        0.1441
     18 C         138.9483  139.1458  160.0197 C.3     1  UNL1        0.0494
     19 C         139.2293  138.0728  161.0294 C.3     1  UNL1        0.0748
     20 C         143.3553  138.5626  166.5054 C.3     1  UNL1        0.0948
     21 C         143.6207  138.8128  165.0504 C.2     1  UNL1        0.2262
     22 O         144.9839  139.2479  164.6007 O.2     1  UNL1       -0.2749
     23 N         142.5228  138.6278  164.0452 N.am    1  UNL1       -0.2767
     24 C         141.1596  138.1927  164.4949 C.3     1  UNL1        0.1107
     25 C         140.0618  138.0077  163.4896 C.3     1  UNL1        0.0939
     26 N         140.3272  138.2578  162.0347 N.3     1  UNL1       -0.2697
     27 C         141.6904  138.6930  161.5850 C.3     1  UNL1        0.0939
     28 C         142.7882  138.8779  162.5902 C.3     1  UNL1        0.1107
@<TRIPOS>BOND
     1    20    21    1
     2    21    22    2
     3    21    23   am
     4    23    24    1
     5    24    25    1
     6    25    26    1
     7    26    19    1
     8    19    18    1
     9    18    17    1
    10    17    16    1
    11    16     1    1
    12     1     2    1
    13     2     3   ar
    14     3     4   ar
    15     4     5    1
    16     4     6   ar
    17     6     8    1
    18     8     9   ar
    19     9    10   ar
    20    10    11   ar
    21    11    12    1
    22    11    13   ar
    23    13    14    1
    24    13    15   ar
    25     6     7   ar
    26    26    27    1
    27    27    28    1
    28    28    23    1
    29     7     2   ar
    30    15     8   ar
@<TRIPOS>MOLECULE
*****
 28 30 0 0 0
SMALL
GASTEIGER

@<TRIPOS>ATOM
      1 C         142.2199  139.8220  161.7595 C.3     1  UNL1        0.1892
      2 C         142.3390  139.7283  163.2518 C.ar    1  UNL1        0.1099
      3 C         143.1901  138.7523  164.0087 C.ar    1  UNL1        0.0337
      4 C         143.0051  139.0149  165.4739 C.ar    1  UNL1        0.0621
      5 C         143.6689  138.2700  166.5939 C.3     1  UNL1        0.0522
      6 N         142.0396  140.1532  165.6225 N.ar    1  UNL1       -0.2339
      7 N         141.6279  140.5941  164.2491 N.ar    1  UNL1       -0.1673
      8 C         141.5685  140.7465  166.9171 C.ar    1  UNL1        0.0833
      9 C         142.2882  141.9217  167.5094 C.ar    1  UNL1        0.0201
     10 C         141.8171  142.5150  168.8041 C.ar    1  UNL1        0.0138
     11 C         140.6262  141.9331  169.5064 C.ar    1  UNL1        0.0683
     12 CL        140.1551  142.5264  170.8011 Cl      1  UNL1       -0.0814
     13 C         139.9064  140.7578  168.9141 C.ar    1  UNL1        0.0697
     14 CL        138.7156  140.1759  169.6163 Cl      1  UNL1       -0.0813
     15 C         140.3776  140.1646  167.6194 C.ar    1  UNL1        0.0314
     16 O         142.9565  140.8953  161.0142 O.3     1  UNL1       -0.3473
     17 C         144.3678  141.2364  161.3909 C.3     1  UNL1        0.1441
     18 C         144.8624  142.6454  161.2488 C.3     1  UNL1        0.0494
     19 C         144.5127  143.6711  162.2859 C.3     1  UNL1        0.0748
     20 C         138.3592  144.7211  165.1635 C.3     1  UNL1        0.0948
     21 C         138.7698  144.6481  163.7227 C.2     1  UNL1        0.2262
     22 O         137.7448  144.8194  162.6411 O.2     1  UNL1       -0.2749
     23 N         140.2056  144.4039  163.3635 N.am    1  UNL1       -0.2767
     24 C         141.2306  144.2326  164.4451 C.3     1  UNL1        0.1107
     25 C         142.6663  143.9883  164.0859 C.3     1  UNL1        0.0939
     26 N         143.0770  143.9154  162.6451 N.3     1  UNL1       -0.2697
     27 C         142.0520  144.0867  161.5635 C.3     1  UNL1        0.0939
     28 C         140.6163  144.3309  161.9227 C.3     1  UNL1        0.1107
@<TRIPOS>BOND
     1    20    21    1
     2    21    22    2
     3    21    23   am
     4    23    24    1
     5    24    25    1
     6    25    26    1
     7    26    19    1
     8    19    18    1
     9    18    17    1
    10    17    16    1
    11    16     1    1
    12     1     2    1
    13     2     3   ar
    14     3     4   ar
    15     4     5    1
    16     4     6   ar
    17     6     8    1
    18     8     9   ar
    19     9    10   ar
    20    10    11   ar
    21    11    12    1
    22    11    13   ar
    23    13    14    1
    24    13    15   ar
    25     6     7   ar
    26    26    27    1
    27    27    28    1
    28    28    23    1
    29     7     2   ar
    30    15     8   ar
@<TRIPOS>MOLECULE
*****
 28 30 0 0 0
SMALL
GASTEIGER

@<TRIPOS>ATOM
      1 C         138.0317  144.5579  162.5476 C.3     1  UNL1        0.1892
      2 C         138.5445  143.6519  163.6275 C.ar    1  UNL1        0.1099
      3 C         138.0004  142.2979  163.9746 C.ar    1  UNL1        0.0337
      4 C         138.8110  141.7500  165.1115 C.ar    1  UNL1        0.0621
      5 C         138.6116  140.4202  165.7762 C.3     1  UNL1        0.0522
      6 N         139.8562  142.7656  165.4671 N.ar    1  UNL1       -0.2339
      7 N         139.6914  143.9410  164.5499 N.ar    1  UNL1       -0.1673
      8 C         140.8854  142.6296  166.5498 C.ar    1  UNL1        0.0833
      9 C         142.3256  142.4110  166.1924 C.ar    1  UNL1        0.0201
     10 C         143.3548  142.2749  167.2751 C.ar    1  UNL1        0.0138
     11 C         142.9438  142.3575  168.7153 C.ar    1  UNL1        0.0683
     12 CL        143.9730  142.2215  169.7980 Cl      1  UNL1       -0.0814
     13 C         141.5034  142.5761  169.0728 C.ar    1  UNL1        0.0697
     14 CL        141.0923  142.6587  170.5130 Cl      1  UNL1       -0.0813
     15 C         140.4743  142.7121  167.9901 C.ar    1  UNL1        0.0314
     16 O         138.8397  145.7470  162.1196 O.3     1  UNL1       -0.3473
     17 C         140.1746  145.5501  161.4642 C.3     1  UNL1        0.1441
     18 C         140.3856  144.4018  160.5224 C.3     1  UNL1        0.0494
     19 C         141.4601  143.3925  160.7992 C.3     1  UNL1        0.0748
     20 C         140.9263  137.6234  164.4981 C.3     1  UNL1        0.0948
     21 C         140.0689  138.1637  163.3922 C.2     1  UNL1        0.2262
     22 O         138.8638  137.3967  162.9345 O.2     1  UNL1       -0.2749
     23 N         140.4167  139.4709  162.7439 N.am    1  UNL1       -0.2767
     24 C         141.6219  140.2378  163.2016 C.3     1  UNL1        0.1107
     25 C         141.9697  141.5450  162.5534 C.3     1  UNL1        0.0939
     26 N         141.1123  142.0853  161.4475 N.3     1  UNL1       -0.2697
     27 C         139.9072  141.3184  160.9898 C.3     1  UNL1        0.0939
     28 C         139.5594  140.0112  161.6380 C.3     1  UNL1        0.1107
@<TRIPOS>BOND
     1    20    21    1
     2    21    22    2
     3    21    23   am
     4    23    24    1
     5    24    25    1
     6    25    26    1
     7    26    19    1
     8    19    18    1
     9    18    17    1
    10    17    16    1
    11    16     1    1
    12     1     2    1
    13     2     3   ar
    14     3     4   ar
    15     4     5    1
    16     4     6   ar
    17     6     8    1
    18     8     9   ar
    19     9    10   ar
    20    10    11   ar
    21    11    12    1
    22    11    13   ar
    23    13    14    1
    24    13    15   ar
    25     6     7   ar
    26    26    27    1
    27    27    28    1
    28    28    23    1
    29     7     2   ar
    30    15     8   ar
@<TRIPOS>MOLECULE
*****
 28 30 0 0 0
SMALL
GASTEIGER

@<TRIPOS>ATOM
      1 C         144.9599  142.4171  162.7265 C.3     1  UNL1        0.1892
      2 C         144.3018  141.6101  163.8060 C.ar    1  UNL1        0.1099
      3 C         144.0213  140.1373  163.7591 C.ar    1  UNL1        0.0337
      4 C         143.3548  139.7510  165.0461 C.ar    1  UNL1        0.0621
      5 C         142.8997  138.3727  165.4244 C.3     1  UNL1        0.0522
      6 N         143.2233  140.9852  165.8886 N.ar    1  UNL1       -0.2339
      7 N         143.8086  142.1341  165.1221 N.ar    1  UNL1       -0.1673
      8 C         142.6136  141.0576  167.2571 C.ar    1  UNL1        0.0833
      9 C         141.5431  140.0847  167.6538 C.ar    1  UNL1        0.0201
     10 C         140.9334  140.1572  169.0223 C.ar    1  UNL1        0.0138
     11 C         141.3942  141.2026  169.9943 C.ar    1  UNL1        0.0683
     12 CL        140.7845  141.2750  171.3629 Cl      1  UNL1       -0.0814
     13 C         142.4648  142.1756  169.5977 C.ar    1  UNL1        0.0697
     14 CL        142.9256  143.2210  170.5696 Cl      1  UNL1       -0.0813
     15 C         143.0744  142.1030  168.2291 C.ar    1  UNL1        0.0314
     16 O         144.3060  143.6692  162.2218 O.3     1  UNL1       -0.3473
     17 C         143.9317  144.7592  163.1820 C.3     1  UNL1        0.1441
     18 C         142.4866  145.0615  163.4472 C.3     1  UNL1        0.0494
     19 C         141.4171  144.3483  162.6743 C.3     1  UNL1        0.0748
     20 C         138.3369  139.2703  166.1351 C.3     1  UNL1        0.0948
     21 C         139.0502  139.2676  164.8156 C.2     1  UNL1        0.2262
     22 O         139.1717  137.9948  164.0314 O.2     1  UNL1       -0.2749
     23 N         139.6419  140.5378  164.2802 N.am    1  UNL1       -0.2767
     24 C         139.5204  141.8106  165.0644 C.3     1  UNL1        0.1107
     25 C         140.1121  143.0808  164.5291 C.3     1  UNL1        0.0939
     26 N         140.8254  143.0781  163.2096 N.3     1  UNL1       -0.2697
     27 C         140.9469  141.8052  162.4254 C.3     1  UNL1        0.0939
     28 C         140.3552  140.5351  162.9607 C.3     1  UNL1        0.1107
@<TRIPOS>BOND
     1    20    21    1
     2    21    22    2
     3    21    23   am
     4    23    24    1
     5    24    25    1
     6    25    26    1
     7    26    19    1
     8    19    18    1
     9    18    17    1
    10    17    16    1
    11    16     1    1
    12     1     2    1
    13     2     3   ar
    14     3     4   ar
    15     4     5    1
    16     4     6   ar
    17     6     8    1
    18     8     9   ar
    19     9    10   ar
    20    10    11   ar
    21    11    12    1
    22    11    13   ar
    23    13    14    1
    24    13    15   ar
    25     6     7   ar
    26    26    27    1
    27    27    28    1
    28    28    23    1
    29     7     2   ar
    30    15     8   ar
@<TRIPOS>MOLECULE
*****
 28 30 0 0 0
SMALL
GASTEIGER

@<TRIPOS>ATOM
      1 C         141.7833  143.9082  161.9444 C.3     1  UNL1        0.1892
      2 C         141.9304  142.9998  163.1289 C.ar    1  UNL1        0.1099
      3 C         142.2211  141.5290  163.0813 C.ar    1  UNL1        0.0337
      4 C         142.2830  141.0229  164.4920 C.ar    1  UNL1        0.0621
      5 C         142.5504  139.6073  164.9099 C.3     1  UNL1        0.0522
      6 N         142.0304  142.1809  165.4114 N.ar    1  UNL1       -0.2339
      7 N         141.8125  143.4027  164.5689 N.ar    1  UNL1       -0.1673
      8 C         142.0010  142.1266  166.9101 C.ar    1  UNL1        0.0833
      9 C         143.2660  142.3203  167.6926 C.ar    1  UNL1        0.0201
     10 C         143.2366  142.2660  169.1914 C.ar    1  UNL1        0.0138
     11 C         141.9422  142.0181  169.9076 C.ar    1  UNL1        0.0683
     12 CL        141.9127  141.9638  171.4064 Cl      1  UNL1       -0.0814
     13 C         140.6771  141.8244  169.1251 C.ar    1  UNL1        0.0697
     14 CL        139.3827  141.5765  169.8413 Cl      1  UNL1       -0.0813
     15 C         140.7066  141.8787  167.6264 C.ar    1  UNL1        0.0314
     16 O         141.3486  145.3306  162.1394 O.3     1  UNL1       -0.3473
     17 C         139.8919  145.6842  162.0820 C.3     1  UNL1        0.1441
     18 C         138.9756  145.2720  163.1957 C.3     1  UNL1        0.0494
     19 C         137.9265  144.2271  162.9560 C.3     1  UNL1        0.0748
     20 C         139.4395  137.5233  162.8143 C.3     1  UNL1        0.0948
     21 C         139.1659  138.4441  163.9663 C.2     1  UNL1        0.2262
     22 O         139.2021  137.9192  165.3710 O.2     1  UNL1       -0.2749
     23 N         138.8560  139.8899  163.7137 N.am    1  UNL1       -0.2767
     24 C         138.8198  140.4148  162.3091 C.3     1  UNL1        0.1107
     25 C         138.5100  141.8606  162.0565 C.3     1  UNL1        0.0939
     26 N         138.2364  142.7814  163.2085 N.3     1  UNL1       -0.2697
     27 C         138.2726  142.2564  164.6132 C.3     1  UNL1        0.0939
     28 C         138.5824  140.8106  164.8658 C.3     1  UNL1        0.1107
@<TRIPOS>BOND
     1    20    21    1
     2    21    22    2
     3    21    23   am
     4    23    24    1
     5    24    25    1
     6    25    26    1
     7    26    19    1
     8    19    18    1
     9    18    17    1
    10    17    16    1
    11    16     1    1
    12     1     2    1
    13     2     3   ar
    14     3     4   ar
    15     4     5    1
    16     4     6   ar
    17     6     8    1
    18     8     9   ar
    19     9    10   ar
    20    10    11   ar
    21    11    12    1
    22    11    13   ar
    23    13    14    1
    24    13    15   ar
    25     6     7   ar
    26    26    27    1
    27    27    28    1
    28    28    23    1
    29     7     2   ar
    30    15     8   ar
