@<TRIPOS>MOLECULE
*****
 31 34 0 0 0
SMALL
GASTEIGER

@<TRIPOS>ATOM
      1 C         142.6591  139.0107  160.2903 C.ar    1  UNL1       -0.0028
      2 C         143.0133  140.3973  160.7396 C.ar    1  UNL1       -0.0014
      3 C         142.7675  140.8110  162.1603 C.ar    1  UNL1        0.0143
      4 C         142.1675  139.8381  163.1316 C.ar    1  UNL1        0.0501
      5 C         141.8133  138.4515  162.6823 C.ar    1  UNL1       -0.0087
      6 C         142.0591  138.0378  161.2617 C.ar    1  UNL1       -0.0057
      7 C         141.2133  137.4787  163.6537 C.3     1  UNL1        0.0294
      8 C         140.9675  137.8924  165.0744 C.3     1  UNL1        0.0266
      9 C         141.3217  139.2790  165.5238 C.3     1  UNL1        0.0988
     10 N         141.9217  140.2519  164.5524 N.am    1  UNL1       -0.2555
     11 C         142.2758  141.6385  165.0017 C.2     1  UNL1        0.2527
     12 O         142.8758  142.6113  164.0303 O.2     1  UNL1       -0.2696
     13 C         142.0300  142.0522  166.4225 C.ar    1  UNL1        0.0547
     14 C         140.6707  142.5295  166.8401 C.ar    1  UNL1        0.0046
     15 C         140.4250  142.9432  168.2608 C.ar    1  UNL1        0.0010
     16 C         141.5385  142.8797  169.2638 C.ar    1  UNL1        0.0114
     17 C         142.8978  142.4025  168.8461 C.ar    1  UNL1        0.0578
     18 CL        144.0114  142.3390  169.8491 Cl      1  UNL1       -0.0822
     19 C         143.1436  141.9887  167.4254 C.ar    1  UNL1        0.0159
     20 C         142.9049  138.5969  158.8695 C.3     1  UNL1        0.1166
     21 O         143.8716  137.6003  156.2101 O.2     1  UNL1       -0.2701
     22 C         143.0608  136.7032  157.0977 C.2     1  UNL1        0.2461
     23 N         142.5774  137.2015  158.4274 N.am    1  UNL1       -0.2969
     24 H         142.0452  136.6127  159.0099 H       1  UNL1        0.1501
     25 C         142.7333  135.3077  156.6556 C.ar    1  UNL1        0.0534
     26 C         141.7460  135.0839  155.5487 C.ar    1  UNL1        0.0054
     27 C         141.4185  133.6885  155.1066 C.ar    1  UNL1        0.0115
     28 C         142.0783  132.5168  155.7713 C.ar    1  UNL1        0.0577
     29 CL        141.7508  131.1214  155.3292 Cl      1  UNL1       -0.0822
     30 C         143.0656  132.7406  156.8782 C.ar    1  UNL1        0.0115
     31 C         143.3930  134.1361  157.3203 C.ar    1  UNL1        0.0054
@<TRIPOS>BOND
     1    21    22    2
     2    22    23   am
     3    23    20    1
     4    20     1    1
     5     1     2   ar
     6     2     3   ar
     7     3     4   ar
     8     4     5   ar
     9     5     6   ar
    10     5     7    1
    11     7     8    1
    12     8     9    1
    13     9    10    1
    14    10    11   am
    15    11    12    2
    16    11    13    1
    17    13    14   ar
    18    14    15   ar
    19    15    16   ar
    20    16    17   ar
    21    17    18    1
    22    17    19   ar
    23    22    25    1
    24    25    26   ar
    25    26    27   ar
    26    27    28   ar
    27    28    29    1
    28    28    30   ar
    29    30    31   ar
    30     6     1   ar
    31    19    13   ar
    32    31    25   ar
    33    10     4    1
    34    23    24    1
@<TRIPOS>MOLECULE
*****
 31 34 0 0 0
SMALL
GASTEIGER

@<TRIPOS>ATOM
      1 C         142.0024  138.0462  158.6475 C.ar    1  UNL1       -0.0028
      2 C         142.6494  137.7055  159.9571 C.ar    1  UNL1       -0.0014
      3 C         141.9220  137.9652  161.2430 C.ar    1  UNL1        0.0143
      4 C         140.5476  138.5656  161.2191 C.ar    1  UNL1        0.0501
      5 C         139.9006  138.9064  159.9095 C.ar    1  UNL1       -0.0087
      6 C         140.6280  138.6467  158.6236 C.ar    1  UNL1       -0.0057
      7 C         138.5263  139.5069  159.8857 C.3     1  UNL1        0.0294
      8 C         137.7989  139.7666  161.1715 C.3     1  UNL1        0.0266
      9 C         138.4459  139.4258  162.4813 C.3     1  UNL1        0.0988
     10 N         139.8203  138.8254  162.5051 N.am    1  UNL1       -0.2555
     11 C         140.4672  138.4846  163.8147 C.2     1  UNL1        0.2527
     12 O         141.8416  137.8841  163.8385 O.2     1  UNL1       -0.2696
     13 C         139.7399  138.7443  165.1007 C.ar    1  UNL1        0.0547
     14 C         138.5333  137.9279  165.4580 C.ar    1  UNL1        0.0046
     15 C         137.8060  138.1876  166.7438 C.ar    1  UNL1        0.0010
     16 C         138.2852  139.2638  167.6724 C.ar    1  UNL1        0.0114
     17 C         139.4918  140.0802  167.3151 C.ar    1  UNL1        0.0578
     18 CL        139.9710  141.1563  168.2437 Cl      1  UNL1       -0.0822
     19 C         140.2191  139.8204  166.0292 C.ar    1  UNL1        0.0159
     20 C         142.7298  137.7865  157.3615 C.3     1  UNL1        0.1166
     21 O         141.1843  135.7139  155.8397 O.2     1  UNL1       -0.2701
     22 C         142.5635  135.4031  156.3408 C.2     1  UNL1        0.2461
     23 N         143.3362  136.4394  157.1018 N.am    1  UNL1       -0.2969
     24 H         144.2415  136.2354  157.4307 H       1  UNL1        0.1501
     25 C         143.1700  134.0560  156.0811 C.ar    1  UNL1        0.0534
     26 C         142.7612  133.2703  154.8705 C.ar    1  UNL1        0.0054
     27 C         143.3676  131.9232  154.6107 C.ar    1  UNL1        0.0115
     28 C         144.3830  131.3618  155.5615 C.ar    1  UNL1        0.0577
     29 CL        144.9895  130.0147  155.3018 Cl      1  UNL1       -0.0822
     30 C         144.7918  132.1476  156.7721 C.ar    1  UNL1        0.0115
     31 C         144.1853  133.4947  157.0319 C.ar    1  UNL1        0.0054
@<TRIPOS>BOND
     1    21    22    2
     2    22    23   am
     3    23    20    1
     4    20     1    1
     5     1     2   ar
     6     2     3   ar
     7     3     4   ar
     8     4     5   ar
     9     5     6   ar
    10     5     7    1
    11     7     8    1
    12     8     9    1
    13     9    10    1
    14    10    11   am
    15    11    12    2
    16    11    13    1
    17    13    14   ar
    18    14    15   ar
    19    15    16   ar
    20    16    17   ar
    21    17    18    1
    22    17    19   ar
    23    22    25    1
    24    25    26   ar
    25    26    27   ar
    26    27    28   ar
    27    28    29    1
    28    28    30   ar
    29    30    31   ar
    30     6     1   ar
    31    19    13   ar
    32    31    25   ar
    33    10     4    1
    34    23    24    1
@<TRIPOS>MOLECULE
*****
 31 34 0 0 0
SMALL
GASTEIGER

@<TRIPOS>ATOM
      1 C         141.9906  139.6021  160.7473 C.ar    1  UNL1       -0.0028
      2 C         140.7702  140.3099  161.2566 C.ar    1  UNL1       -0.0014
      3 C         140.5897  140.5280  162.7296 C.ar    1  UNL1        0.0143
      4 C         141.6295  140.0382  163.6933 C.ar    1  UNL1        0.0501
      5 C         142.8500  139.3303  163.1840 C.ar    1  UNL1       -0.0087
      6 C         143.0305  139.1123  161.7110 C.ar    1  UNL1       -0.0057
      7 C         143.8899  138.8405  164.1477 C.3     1  UNL1        0.0294
      8 C         143.7093  139.0586  165.6207 C.3     1  UNL1        0.0266
      9 C         142.4889  139.7665  166.1301 C.3     1  UNL1        0.0988
     10 N         141.4490  140.2563  165.1664 N.am    1  UNL1       -0.2555
     11 C         140.2285  140.9641  165.6757 C.2     1  UNL1        0.2527
     12 O         139.1886  141.4539  164.7120 O.2     1  UNL1       -0.2696
     13 C         140.0480  141.1822  167.1488 C.ar    1  UNL1        0.0547
     14 C         139.4645  140.0952  168.0020 C.ar    1  UNL1        0.0046
     15 C         139.2839  140.3133  169.4750 C.ar    1  UNL1        0.0010
     16 C         139.6868  141.6185  170.0948 C.ar    1  UNL1        0.0114
     17 C         140.2703  142.7055  169.2417 C.ar    1  UNL1        0.0578
     18 CL        140.6732  144.0107  169.8616 Cl      1  UNL1       -0.0822
     19 C         140.4509  142.4874  167.7687 C.ar    1  UNL1        0.0159
     20 C         142.1712  139.3840  159.2742 C.3     1  UNL1        0.1166
     21 O         143.6704  138.5419  156.8159 O.2     1  UNL1       -0.2701
     22 C         142.6892  137.6038  157.4541 C.2     1  UNL1        0.2461
     23 N         141.9396  138.0249  158.6833 N.am    1  UNL1       -0.2969
     24 H         141.2956  137.4092  159.1022 H       1  UNL1        0.1501
     25 C         142.4576  136.2448  156.8632 C.ar    1  UNL1        0.0534
     26 C         141.4455  136.0644  155.7709 C.ar    1  UNL1        0.0054
     27 C         141.2139  134.7053  155.1800 C.ar    1  UNL1        0.0115
     28 C         141.9944  133.5265  155.6814 C.ar    1  UNL1        0.0577
     29 CL        141.7628  132.1674  155.0905 Cl      1  UNL1       -0.0822
     30 C         143.0065  133.7069  156.7737 C.ar    1  UNL1        0.0115
     31 C         143.2381  135.0661  157.3646 C.ar    1  UNL1        0.0054
@<TRIPOS>BOND
     1    21    22    2
     2    22    23   am
     3    23    20    1
     4    20     1    1
     5     1     2   ar
     6     2     3   ar
     7     3     4   ar
     8     4     5   ar
     9     5     6   ar
    10     5     7    1
    11     7     8    1
    12     8     9    1
    13     9    10    1
    14    10    11   am
    15    11    12    2
    16    11    13    1
    17    13    14   ar
    18    14    15   ar
    19    15    16   ar
    20    16    17   ar
    21    17    18    1
    22    17    19   ar
    23    22    25    1
    24    25    26   ar
    25    26    27   ar
    26    27    28   ar
    27    28    29    1
    28    28    30   ar
    29    30    31   ar
    30     6     1   ar
    31    19    13   ar
    32    31    25   ar
    33    10     4    1
    34    23    24    1
@<TRIPOS>MOLECULE
*****
 31 34 0 0 0
SMALL
GASTEIGER

@<TRIPOS>ATOM
      1 C         142.9427  138.8977  160.1359 C.ar    1  UNL1       -0.0028
      2 C         141.8631  138.4313  161.0669 C.ar    1  UNL1       -0.0014
      3 C         141.8602  138.8819  162.4976 C.ar    1  UNL1        0.0143
      4 C         142.9370  139.7989  162.9972 C.ar    1  UNL1        0.0501
      5 C         144.0166  140.2653  162.0662 C.ar    1  UNL1       -0.0087
      6 C         144.0195  139.8147  160.6356 C.ar    1  UNL1       -0.0057
      7 C         145.0934  141.1823  162.5659 C.3     1  UNL1        0.0294
      8 C         145.0905  141.6330  163.9966 C.3     1  UNL1        0.0266
      9 C         144.0109  141.1665  164.9277 C.3     1  UNL1        0.0988
     10 N         142.9341  140.2495  164.4280 N.am    1  UNL1       -0.2555
     11 C         141.8545  139.7831  165.3590 C.2     1  UNL1        0.2527
     12 O         140.7777  138.8661  164.8594 O.2     1  UNL1       -0.2696
     13 C         141.8516  140.2337  166.7898 C.ar    1  UNL1        0.0547
     14 C         142.5678  139.4267  167.8317 C.ar    1  UNL1        0.0046
     15 C         142.5649  139.8774  169.2624 C.ar    1  UNL1        0.0010
     16 C         141.8457  141.1350  169.6511 C.ar    1  UNL1        0.0114
     17 C         141.1295  141.9420  168.6092 C.ar    1  UNL1        0.0578
     18 CL        140.4103  143.1996  168.9980 Cl      1  UNL1       -0.0822
     19 C         141.1324  141.4914  167.1785 C.ar    1  UNL1        0.0159
     20 C         142.9456  138.4471  158.7051 C.3     1  UNL1        0.1166
     21 O         143.7982  137.3427  156.0493 O.2     1  UNL1       -0.2701
     22 C         143.1078  136.4566  157.0433 C.2     1  UNL1        0.2461
     23 N         142.6815  137.0088  158.3713 N.am    1  UNL1       -0.2969
     24 H         142.2283  136.4272  159.0237 H       1  UNL1        0.1501
     25 C         142.8436  135.0183  156.7094 C.ar    1  UNL1        0.0534
     26 C         143.5482  133.9312  157.4656 C.ar    1  UNL1        0.0054
     27 C         143.2840  132.4929  157.1317 C.ar    1  UNL1        0.0115
     28 C         142.3153  132.1416  156.0416 C.ar    1  UNL1        0.0577
     29 CL        142.0511  130.7033  155.7078 Cl      1  UNL1       -0.0822
     30 C         141.6107  133.2287  155.2855 C.ar    1  UNL1        0.0115
     31 C         141.8749  134.6671  155.6194 C.ar    1  UNL1        0.0054
@<TRIPOS>BOND
     1    21    22    2
     2    22    23   am
     3    23    20    1
     4    20     1    1
     5     1     2   ar
     6     2     3   ar
     7     3     4   ar
     8     4     5   ar
     9     5     6   ar
    10     5     7    1
    11     7     8    1
    12     8     9    1
    13     9    10    1
    14    10    11   am
    15    11    12    2
    16    11    13    1
    17    13    14   ar
    18    14    15   ar
    19    15    16   ar
    20    16    17   ar
    21    17    18    1
    22    17    19   ar
    23    22    25    1
    24    25    26   ar
    25    26    27   ar
    26    27    28   ar
    27    28    29    1
    28    28    30   ar
    29    30    31   ar
    30     6     1   ar
    31    19    13   ar
    32    31    25   ar
    33    10     4    1
    34    23    24    1
@<TRIPOS>MOLECULE
*****
 31 34 0 0 0
SMALL
GASTEIGER

@<TRIPOS>ATOM
      1 C         142.5777  138.5671  160.7138 C.ar    1  UNL1       -0.0028
      2 C         143.5036  139.4310  161.5177 C.ar    1  UNL1       -0.0014
      3 C         143.1826  139.7453  162.9488 C.ar    1  UNL1        0.0143
      4 C         141.9359  139.1956  163.5760 C.ar    1  UNL1        0.0501
      5 C         141.0100  138.3316  162.7721 C.ar    1  UNL1       -0.0087
      6 C         141.3310  138.0174  161.3410 C.ar    1  UNL1       -0.0057
      7 C         139.7633  137.7819  163.3993 C.3     1  UNL1        0.0294
      8 C         139.4423  138.0962  164.8304 C.3     1  UNL1        0.0266
      9 C         140.3682  138.9602  165.6344 C.3     1  UNL1        0.0988
     10 N         141.6149  139.5099  165.0072 N.am    1  UNL1       -0.2555
     11 C         142.5408  140.3739  165.8112 C.2     1  UNL1        0.2527
     12 O         143.7875  140.9236  165.1839 O.2     1  UNL1       -0.2696
     13 C         142.2199  140.6882  167.2424 C.ar    1  UNL1        0.0547
     14 C         142.6387  139.7437  168.3298 C.ar    1  UNL1        0.0046
     15 C         142.3177  140.0580  169.7609 C.ar    1  UNL1        0.0010
     16 C         141.5780  141.3169  170.1046 C.ar    1  UNL1        0.0114
     17 C         141.1592  142.2614  169.0172 C.ar    1  UNL1        0.0578
     18 CL        140.4195  143.5202  169.3609 Cl      1  UNL1       -0.0822
     19 C         141.4801  141.9470  167.5861 C.ar    1  UNL1        0.0159
     20 C         142.8986  138.2528  159.2825 C.3     1  UNL1        0.1166
     21 O         143.6848  137.5721  156.4685 O.2     1  UNL1       -0.2701
     22 C         142.9873  136.5528  157.3197 C.2     1  UNL1        0.2461
     23 N         142.5942  136.8932  158.7268 N.am    1  UNL1       -0.2969
     24 H         142.1365  136.2242  159.2855 H       1  UNL1        0.1501
     25 C         142.6829  135.1933  156.7640 C.ar    1  UNL1        0.0534
     26 C         141.7299  135.0490  155.6147 C.ar    1  UNL1        0.0054
     27 C         141.4255  133.6895  155.0589 C.ar    1  UNL1        0.0115
     28 C         142.0741  132.4741  155.6525 C.ar    1  UNL1        0.0577
     29 CL        141.7697  131.1145  155.0968 Cl      1  UNL1       -0.0822
     30 C         143.0271  132.6184  156.8018 C.ar    1  UNL1        0.0115
     31 C         143.3315  133.9780  157.3576 C.ar    1  UNL1        0.0054
@<TRIPOS>BOND
     1    21    22    2
     2    22    23   am
     3    23    20    1
     4    20     1    1
     5     1     2   ar
     6     2     3   ar
     7     3     4   ar
     8     4     5   ar
     9     5     6   ar
    10     5     7    1
    11     7     8    1
    12     8     9    1
    13     9    10    1
    14    10    11   am
    15    11    12    2
    16    11    13    1
    17    13    14   ar
    18    14    15   ar
    19    15    16   ar
    20    16    17   ar
    21    17    18    1
    22    17    19   ar
    23    22    25    1
    24    25    26   ar
    25    26    27   ar
    26    27    28   ar
    27    28    29    1
    28    28    30   ar
    29    30    31   ar
    30     6     1   ar
    31    19    13   ar
    32    31    25   ar
    33    10     4    1
    34    23    24    1
@<TRIPOS>MOLECULE
*****
 31 34 0 0 0
SMALL
GASTEIGER

@<TRIPOS>ATOM
      1 C         142.1098  138.1353  161.7783 C.ar    1  UNL1       -0.0028
      2 C         143.0801  138.8847  162.6425 C.ar    1  UNL1       -0.0014
      3 C         142.6625  139.3566  164.0036 C.ar    1  UNL1        0.0143
      4 C         141.2747  139.0791  164.5006 C.ar    1  UNL1        0.0501
      5 C         140.3044  138.3297  163.6364 C.ar    1  UNL1       -0.0087
      6 C         140.7220  137.8578  162.2752 C.ar    1  UNL1       -0.0057
      7 C         138.9166  138.0522  164.1334 C.3     1  UNL1        0.0294
      8 C         138.4991  138.5241  165.4946 C.3     1  UNL1        0.0266
      9 C         139.4694  139.2736  166.3589 C.3     1  UNL1        0.0988
     10 N         140.8572  139.5511  165.8619 N.am    1  UNL1       -0.2555
     11 C         141.8274  140.3005  166.7261 C.2     1  UNL1        0.2527
     12 O         143.2152  140.5780  166.2291 O.2     1  UNL1       -0.2696
     13 C         141.4099  140.7725  168.0874 C.ar    1  UNL1        0.0547
     14 C         141.3555  139.8053  169.2325 C.ar    1  UNL1        0.0046
     15 C         140.9380  140.2773  170.5937 C.ar    1  UNL1        0.0010
     16 C         140.5749  141.7165  170.8097 C.ar    1  UNL1        0.0114
     17 C         140.6293  142.6838  169.6646 C.ar    1  UNL1        0.0578
     18 CL        140.2661  144.1231  169.8806 Cl      1  UNL1       -0.0822
     19 C         141.0468  142.2118  168.3034 C.ar    1  UNL1        0.0159
     20 C         142.5273  137.6633  160.4170 C.3     1  UNL1        0.1166
     21 O         141.5515  139.9400  158.7246 O.2     1  UNL1       -0.2701
     22 C         143.0137  139.6076  158.7637 C.2     1  UNL1        0.2461
     23 N         143.5016  138.4691  159.6099 N.am    1  UNL1       -0.2969
     24 H         144.4613  138.2509  159.6356 H       1  UNL1        0.1501
     25 C         143.9879  140.4134  157.9566 C.ar    1  UNL1        0.0534
     26 C         144.4021  139.9438  156.5936 C.ar    1  UNL1        0.0054
     27 C         145.3763  140.7496  155.7866 C.ar    1  UNL1        0.0115
     28 C         145.9365  142.0252  156.3425 C.ar    1  UNL1        0.0577
     29 CL        146.9107  142.8311  155.5355 Cl      1  UNL1       -0.0822
     30 C         145.5224  142.4949  157.7056 C.ar    1  UNL1        0.0115
     31 C         144.5481  141.6890  158.5127 C.ar    1  UNL1        0.0054
@<TRIPOS>BOND
     1    21    22    2
     2    22    23   am
     3    23    20    1
     4    20     1    1
     5     1     2   ar
     6     2     3   ar
     7     3     4   ar
     8     4     5   ar
     9     5     6   ar
    10     5     7    1
    11     7     8    1
    12     8     9    1
    13     9    10    1
    14    10    11   am
    15    11    12    2
    16    11    13    1
    17    13    14   ar
    18    14    15   ar
    19    15    16   ar
    20    16    17   ar
    21    17    18    1
    22    17    19   ar
    23    22    25    1
    24    25    26   ar
    25    26    27   ar
    26    27    28   ar
    27    28    29    1
    28    28    30   ar
    29    30    31   ar
    30     6     1   ar
    31    19    13   ar
    32    31    25   ar
    33    10     4    1
    34    23    24    1
@<TRIPOS>MOLECULE
*****
 31 34 0 0 0
SMALL
GASTEIGER

@<TRIPOS>ATOM
      1 C         140.9688  140.2315  160.1232 C.ar    1  UNL1       -0.0028
      2 C         141.7590  141.0861  161.0694 C.ar    1  UNL1       -0.0014
      3 C         141.6768  140.8423  162.5471 C.ar    1  UNL1        0.0143
      4 C         140.8045  139.7439  163.0787 C.ar    1  UNL1        0.0501
      5 C         140.0143  138.8893  162.1325 C.ar    1  UNL1       -0.0087
      6 C         140.0965  139.1331  160.6548 C.ar    1  UNL1       -0.0057
      7 C         139.1420  137.7909  162.6641 C.3     1  UNL1        0.0294
      8 C         139.0598  137.5471  164.1419 C.3     1  UNL1        0.0266
      9 C         139.8500  138.4017  165.0881 C.3     1  UNL1        0.0988
     10 N         140.7223  139.5001  164.5565 N.am    1  UNL1       -0.2555
     11 C         141.5125  140.3547  165.5027 C.2     1  UNL1        0.2527
     12 O         142.3848  141.4531  164.9711 O.2     1  UNL1       -0.2696
     13 C         141.4303  140.1110  166.9805 C.ar    1  UNL1        0.0547
     14 C         142.6025  139.5250  167.7103 C.ar    1  UNL1        0.0046
     15 C         142.5203  139.2813  169.1881 C.ar    1  UNL1        0.0010
     16 C         141.2659  139.6235  169.9360 C.ar    1  UNL1        0.0114
     17 C         140.0938  140.2095  169.2063 C.ar    1  UNL1        0.0578
     18 CL        138.8394  140.5517  169.9542 Cl      1  UNL1       -0.0822
     19 C         140.1760  140.4532  167.7285 C.ar    1  UNL1        0.0159
     20 C         141.0510  140.4752  158.6454 C.3     1  UNL1        0.1166
     21 O         143.4870  138.7350  158.4519 O.2     1  UNL1       -0.2701
     22 C         142.2888  138.4457  157.5972 C.2     1  UNL1        0.2461
     23 N         141.0708  139.3158  157.6940 N.am    1  UNL1       -0.2969
     24 H         140.2843  139.1259  157.1330 H       1  UNL1        0.1501
     25 C         142.3086  137.2862  156.6458 C.ar    1  UNL1        0.0534
     26 C         141.0196  136.6961  156.1557 C.ar    1  UNL1        0.0054
     27 C         141.0394  135.5367  155.2043 C.ar    1  UNL1        0.0115
     28 C         142.3482  134.9672  154.7429 C.ar    1  UNL1        0.0577
     29 CL        142.3680  133.8078  153.7915 Cl      1  UNL1       -0.0822
     30 C         143.6372  135.5574  155.2330 C.ar    1  UNL1        0.0115
     31 C         143.6174  136.7169  156.1845 C.ar    1  UNL1        0.0054
@<TRIPOS>BOND
     1    21    22    2
     2    22    23   am
     3    23    20    1
     4    20     1    1
     5     1     2   ar
     6     2     3   ar
     7     3     4   ar
     8     4     5   ar
     9     5     6   ar
    10     5     7    1
    11     7     8    1
    12     8     9    1
    13     9    10    1
    14    10    11   am
    15    11    12    2
    16    11    13    1
    17    13    14   ar
    18    14    15   ar
    19    15    16   ar
    20    16    17   ar
    21    17    18    1
    22    17    19   ar
    23    22    25    1
    24    25    26   ar
    25    26    27   ar
    26    27    28   ar
    27    28    29    1
    28    28    30   ar
    29    30    31   ar
    30     6     1   ar
    31    19    13   ar
    32    31    25   ar
    33    10     4    1
    34    23    24    1
@<TRIPOS>MOLECULE
*****
 31 34 0 0 0
SMALL
GASTEIGER

@<TRIPOS>ATOM
      1 C         141.2201  138.0422  158.1243 C.ar    1  UNL1       -0.0028
      2 C         139.8784  138.4038  158.6893 C.ar    1  UNL1       -0.0014
      3 C         139.7279  138.6584  160.1598 C.ar    1  UNL1        0.0143
      4 C         140.9189  138.5514  161.0653 C.ar    1  UNL1        0.0501
      5 C         142.2605  138.1898  160.5004 C.ar    1  UNL1       -0.0087
      6 C         142.4111  137.9352  159.0298 C.ar    1  UNL1       -0.0057
      7 C         143.4516  138.0828  161.4059 C.3     1  UNL1        0.0294
      8 C         143.3010  138.3374  162.8764 C.3     1  UNL1        0.0266
      9 C         141.9593  138.6989  163.4415 C.3     1  UNL1        0.0988
     10 N         140.7682  138.8059  162.5359 N.am    1  UNL1       -0.2555
     11 C         139.4266  139.1675  163.1009 C.2     1  UNL1        0.2527
     12 O         138.2356  139.2745  162.1954 O.2     1  UNL1       -0.2696
     13 C         139.2760  139.4221  164.5715 C.ar    1  UNL1        0.0547
     14 C         138.5078  138.4570  165.4249 C.ar    1  UNL1        0.0046
     15 C         138.3572  138.7116  166.8954 C.ar    1  UNL1        0.0010
     16 C         138.9748  139.9313  167.5125 C.ar    1  UNL1        0.0114
     17 C         139.7430  140.8964  166.6591 C.ar    1  UNL1        0.0578
     18 CL        140.3605  142.1162  167.2762 Cl      1  UNL1       -0.0822
     19 C         139.8936  140.6418  165.1886 C.ar    1  UNL1        0.0159
     20 C         141.3707  137.7877  156.6537 C.3     1  UNL1        0.1166
     21 O         144.1171  136.7249  156.0809 O.2     1  UNL1       -0.2701
     22 C         142.9154  135.8542  155.8626 C.2     1  UNL1        0.2461
     23 N         141.5421  136.3856  156.1490 N.am    1  UNL1       -0.2969
     24 H         140.7534  135.8141  156.0057 H       1  UNL1        0.1501
     25 C         143.0868  134.4521  155.3578 C.ar    1  UNL1        0.0534
     26 C         143.9388  133.4800  156.1187 C.ar    1  UNL1        0.0054
     27 C         144.1103  132.0780  155.6140 C.ar    1  UNL1        0.0115
     28 C         143.4296  131.6480  154.3483 C.ar    1  UNL1        0.0577
     29 CL        143.6011  130.2459  153.8435 Cl      1  UNL1       -0.0822
     30 C         142.5776  132.6201  153.5874 C.ar    1  UNL1        0.0115
     31 C         142.4062  134.0222  154.0922 C.ar    1  UNL1        0.0054
@<TRIPOS>BOND
     1    21    22    2
     2    22    23   am
     3    23    20    1
     4    20     1    1
     5     1     2   ar
     6     2     3   ar
     7     3     4   ar
     8     4     5   ar
     9     5     6   ar
    10     5     7    1
    11     7     8    1
    12     8     9    1
    13     9    10    1
    14    10    11   am
    15    11    12    2
    16    11    13    1
    17    13    14   ar
    18    14    15   ar
    19    15    16   ar
    20    16    17   ar
    21    17    18    1
    22    17    19   ar
    23    22    25    1
    24    25    26   ar
    25    26    27   ar
    26    27    28   ar
    27    28    29    1
    28    28    30   ar
    29    30    31   ar
    30     6     1   ar
    31    19    13   ar
    32    31    25   ar
    33    10     4    1
    34    23    24    1
@<TRIPOS>MOLECULE
*****
 31 34 0 0 0
SMALL
GASTEIGER

@<TRIPOS>ATOM
      1 C         143.0642  138.1100  162.1608 C.ar    1  UNL1       -0.0028
      2 C         143.7843  139.0098  163.1208 C.ar    1  UNL1       -0.0014
      3 C         143.0862  139.5043  164.3528 C.ar    1  UNL1        0.0143
      4 C         141.6678  139.0990  164.6249 C.ar    1  UNL1        0.0501
      5 C         140.9476  138.1992  163.6648 C.ar    1  UNL1       -0.0087
      6 C         141.6458  137.7047  162.4328 C.ar    1  UNL1       -0.0057
      7 C         139.5293  137.7939  163.9369 C.3     1  UNL1        0.0294
      8 C         138.8311  138.2884  165.1689 C.3     1  UNL1        0.0266
      9 C         139.5512  139.1883  166.1290 C.3     1  UNL1        0.0988
     10 N         140.9696  139.5936  165.8570 N.am    1  UNL1       -0.2555
     11 C         141.6898  140.4934  166.8170 C.2     1  UNL1        0.2527
     12 O         143.1081  140.8987  166.5449 O.2     1  UNL1       -0.2696
     13 C         140.9916  140.9880  168.0491 C.ar    1  UNL1        0.0547
     14 C         140.2658  140.0225  168.9384 C.ar    1  UNL1        0.0046
     15 C         139.5676  140.5171  170.1704 C.ar    1  UNL1        0.0010
     16 C         139.5953  141.9771  170.5131 C.ar    1  UNL1        0.0114
     17 C         140.3211  142.9426  169.6238 C.ar    1  UNL1        0.0578
     18 CL        140.3488  144.4027  169.9665 Cl      1  UNL1       -0.0822
     19 C         141.0193  142.4480  168.3918 C.ar    1  UNL1        0.0159
     20 C         143.7624  137.6154  160.9287 C.3     1  UNL1        0.1166
     21 O         143.2694  139.6467  158.7767 O.2     1  UNL1       -0.2701
     22 C         142.7191  138.2582  158.6377 C.2     1  UNL1        0.2461
     23 N         142.9656  137.2425  159.7138 N.am    1  UNL1       -0.2969
     24 H         142.6044  136.3312  159.6226 H       1  UNL1        0.1501
     25 C         141.9223  137.8853  157.4228 C.ar    1  UNL1        0.0534
     26 C         140.4233  137.8912  157.4781 C.ar    1  UNL1        0.0054
     27 C         139.6266  137.5183  156.2632 C.ar    1  UNL1        0.0115
     28 C         140.3288  137.1396  154.9929 C.ar    1  UNL1        0.0577
     29 CL        139.5320  136.7667  153.7779 Cl      1  UNL1       -0.0822
     30 C         141.8277  137.1337  154.9376 C.ar    1  UNL1        0.0115
     31 C         142.6245  137.5066  156.1526 C.ar    1  UNL1        0.0054
@<TRIPOS>BOND
     1    21    22    2
     2    22    23   am
     3    23    20    1
     4    20     1    1
     5     1     2   ar
     6     2     3   ar
     7     3     4   ar
     8     4     5   ar
     9     5     6   ar
    10     5     7    1
    11     7     8    1
    12     8     9    1
    13     9    10    1
    14    10    11   am
    15    11    12    2
    16    11    13    1
    17    13    14   ar
    18    14    15   ar
    19    15    16   ar
    20    16    17   ar
    21    17    18    1
    22    17    19   ar
    23    22    25    1
    24    25    26   ar
    25    26    27   ar
    26    27    28   ar
    27    28    29    1
    28    28    30   ar
    29    30    31   ar
    30     6     1   ar
    31    19    13   ar
    32    31    25   ar
    33    10     4    1
    34    23    24    1
