@<TRIPOS>MOLECULE
*****
 27 30 0 0 0
SMALL
GASTEIGER

@<TRIPOS>ATOM
      1 N         138.7250  142.4099  162.4674 N.ar    1  UNL1       -0.2291
      2 N         137.6734  141.4795  161.9398 N.ar    1  UNL1       -0.1635
      3 C         137.4197  140.4290  162.9801 C.ar    1  UNL1        0.1221
      4 C         138.3146  140.7102  164.1507 C.ar    1  UNL1        0.0416
      5 C         138.4990  140.0097  165.4641 C.ar    1  UNL1        0.0406
      6 C         139.4902  140.5334  166.4607 C.ar    1  UNL1        0.1455
      7 C         140.2969  141.7576  166.1438 C.ar    1  UNL1        0.0390
      8 C         140.1125  142.4582  164.8304 C.ar    1  UNL1        0.0223
      9 C         139.1213  141.9345  163.8338 C.ar    1  UNL1        0.0845
     10 C         140.2474  145.0296  160.0415 C.ar    1  UNL1        0.0843
     11 C         139.7832  143.6348  160.3403 C.ar    1  UNL1        0.0307
     12 C         139.2825  143.6058  161.7540 C.ar    1  UNL1        0.0899
     13 C         139.4373  144.9825  162.3288 C.ar    1  UNL1        0.0547
     14 S         140.0336  145.8626  161.2706 S.2     1  UNL1       -0.0803
     15 C         140.4967  146.2661  156.2786 C.3     1  UNL1        0.1110
     16 N         139.9200  145.7882  157.5783 N.am    1  UNL1       -0.2987
     17 C         140.8241  145.5075  158.7418 C.2     1  UNL1        0.2520
     18 O         142.3048  145.7046  158.6058 O.2     1  UNL1       -0.2696
     19 H         138.9482  145.6588  157.6676 H       1  UNL1        0.1498
     20 O         139.6747  139.8328  167.7742 O.3     1  UNL1       -0.4526
     21 C         140.4577  140.4906  168.8715 C.ar    1  UNL1        0.1557
     22 C         139.7761  141.4346  169.8173 C.ar    1  UNL1        0.0384
     23 C         140.5591  142.0924  170.9146 C.ar    1  UNL1        0.0032
     24 C         142.0238  141.8063  171.0662 C.ar    1  UNL1        0.0011
     25 C         142.7054  140.8624  170.1204 C.ar    1  UNL1        0.0145
     26 C         141.9223  140.2046  169.0231 C.ar    1  UNL1        0.0921
     27 CL        142.6040  139.2606  168.0773 Cl      1  UNL1       -0.0791
@<TRIPOS>BOND
     1    15    16    1
     2    16    17   am
     3    17    18    2
     4    17    10    1
     5    10    11   ar
     6    11    12   ar
     7    12     1    1
     8     1     2   ar
     9     2     3   ar
    10     3     4   ar
    11     4     5   ar
    12     5     6   ar
    13     6    20    1
    14    20    21    1
    15    21    22   ar
    16    22    23   ar
    17    23    24   ar
    18    24    25   ar
    19    25    26   ar
    20    26    27    1
    21     6     7   ar
    22     7     8   ar
    23     8     9   ar
    24    12    13   ar
    25    13    14   ar
    26    14    10   ar
    27     9     1   ar
    28     9     4   ar
    29    26    21   ar
    30    16    19    1
@<TRIPOS>MOLECULE
*****
 27 30 0 0 0
SMALL
GASTEIGER

@<TRIPOS>ATOM
      1 N         143.6806  143.4626  162.2044 N.ar    1  UNL1       -0.2291
      2 N         143.8542  144.8369  162.7797 N.ar    1  UNL1       -0.1635
      3 C         143.7777  144.7269  164.2737 C.ar    1  UNL1        0.1221
      4 C         143.5567  143.2847  164.6217 C.ar    1  UNL1        0.0416
      5 C         143.4024  142.5820  165.9379 C.ar    1  UNL1        0.0406
      6 C         143.1881  141.0979  165.9751 C.ar    1  UNL1        0.1455
      7 C         143.1281  140.3165  164.6961 C.ar    1  UNL1        0.0390
      8 C         143.2824  141.0191  163.3799 C.ar    1  UNL1        0.0223
      9 C         143.4967  142.5033  163.3427 C.ar    1  UNL1        0.0845
     10 C         144.4210  142.3574  158.5580 C.ar    1  UNL1        0.0843
     11 C         144.8566  142.5642  159.9784 C.ar    1  UNL1        0.0307
     12 C         143.6893  143.1095  160.7465 C.ar    1  UNL1        0.0899
     13 C         142.5323  143.2398  159.8009 C.ar    1  UNL1        0.0547
     14 S         142.9844  142.7750  158.4482 S.2     1  UNL1       -0.0803
     15 C         147.1224  142.1900  155.6554 C.3     1  UNL1        0.1110
     16 N         146.2709  142.7211  156.7703 N.am    1  UNL1       -0.2987
     17 C         145.2724  141.8263  157.4431 C.2     1  UNL1        0.2520
     18 O         145.1254  140.4005  157.0009 O.2     1  UNL1       -0.2696
     19 H         146.3674  143.6568  157.0606 H       1  UNL1        0.1498
     20 O         143.0338  140.3951  167.2913 O.3     1  UNL1       -0.4526
     21 C         141.8946  140.7482  168.2010 C.ar    1  UNL1        0.1557
     22 C         140.5499  140.1145  167.9997 C.ar    1  UNL1        0.0384
     23 C         139.4107  140.4676  168.9094 C.ar    1  UNL1        0.0032
     24 C         139.6162  141.4544  170.0204 C.ar    1  UNL1        0.0011
     25 C         140.9608  142.0881  170.2216 C.ar    1  UNL1        0.0145
     26 C         142.1000  141.7350  169.3119 C.ar    1  UNL1        0.0921
     27 CL        143.4446  142.3687  169.5131 Cl      1  UNL1       -0.0791
@<TRIPOS>BOND
     1    15    16    1
     2    16    17   am
     3    17    18    2
     4    17    10    1
     5    10    11   ar
     6    11    12   ar
     7    12     1    1
     8     1     2   ar
     9     2     3   ar
    10     3     4   ar
    11     4     5   ar
    12     5     6   ar
    13     6    20    1
    14    20    21    1
    15    21    22   ar
    16    22    23   ar
    17    23    24   ar
    18    24    25   ar
    19    25    26   ar
    20    26    27    1
    21     6     7   ar
    22     7     8   ar
    23     8     9   ar
    24    12    13   ar
    25    13    14   ar
    26    14    10   ar
    27     9     1   ar
    28     9     4   ar
    29    26    21   ar
    30    16    19    1
@<TRIPOS>MOLECULE
*****
 27 30 0 0 0
SMALL
GASTEIGER

@<TRIPOS>ATOM
      1 N         140.3942  145.2605  160.1419 N.ar    1  UNL1       -0.2291
      2 N         139.5134  146.0777  161.0400 N.ar    1  UNL1       -0.1635
      3 C         140.0221  145.9341  162.4437 C.ar    1  UNL1        0.1221
      4 C         141.2174  145.0282  162.4133 C.ar    1  UNL1        0.0416
      5 C         142.1260  144.5287  163.4972 C.ar    1  UNL1        0.0406
      6 C         143.2646  143.6128  163.1584 C.ar    1  UNL1        0.1455
      7 C         143.4945  143.1966  161.7358 C.ar    1  UNL1        0.0390
      8 C         142.5859  143.6961  160.6519 C.ar    1  UNL1        0.0223
      9 C         141.4473  144.6119  160.9907 C.ar    1  UNL1        0.0845
     10 C         140.1708  145.6267  156.2843 C.ar    1  UNL1        0.0843
     11 C         140.4019  146.2144  157.6449 C.ar    1  UNL1        0.0307
     12 C         140.2477  145.1171  158.6560 C.ar    1  UNL1        0.0899
     13 C         139.9213  143.8514  157.9203 C.ar    1  UNL1        0.0547
     14 S         139.8737  144.1663  156.4545 S.2     1  UNL1       -0.0803
     15 C         140.2300  148.6107  153.6684 C.3     1  UNL1        0.1110
     16 N         140.1739  147.8682  154.9706 N.am    1  UNL1       -0.2987
     17 C         140.2269  146.3692  154.9821 C.2     1  UNL1        0.2520
     18 O         140.3360  145.6126  153.6915 O.2     1  UNL1       -0.2696
     19 H         140.1023  148.3648  155.8176 H       1  UNL1        0.1498
     20 O         144.1733  143.1132  164.2423 O.3     1  UNL1       -0.4526
     21 C         144.1031  141.6797  164.6783 C.ar    1  UNL1        0.1557
     22 C         145.0095  140.6606  164.0536 C.ar    1  UNL1        0.0384
     23 C         144.9394  139.2271  164.4895 C.ar    1  UNL1        0.0032
     24 C         143.9629  138.8126  165.5501 C.ar    1  UNL1        0.0011
     25 C         143.0566  139.8317  166.1747 C.ar    1  UNL1        0.0145
     26 C         143.1267  141.2652  165.7388 C.ar    1  UNL1        0.0921
     27 CL        142.2204  142.2843  166.3634 Cl      1  UNL1       -0.0791
@<TRIPOS>BOND
     1    15    16    1
     2    16    17   am
     3    17    18    2
     4    17    10    1
     5    10    11   ar
     6    11    12   ar
     7    12     1    1
     8     1     2   ar
     9     2     3   ar
    10     3     4   ar
    11     4     5   ar
    12     5     6   ar
    13     6    20    1
    14    20    21    1
    15    21    22   ar
    16    22    23   ar
    17    23    24   ar
    18    24    25   ar
    19    25    26   ar
    20    26    27    1
    21     6     7   ar
    22     7     8   ar
    23     8     9   ar
    24    12    13   ar
    25    13    14   ar
    26    14    10   ar
    27     9     1   ar
    28     9     4   ar
    29    26    21   ar
    30    16    19    1
@<TRIPOS>MOLECULE
*****
 27 30 0 0 0
SMALL
GASTEIGER

@<TRIPOS>ATOM
      1 N         139.5907  144.1065  162.6362 N.ar    1  UNL1       -0.2291
      2 N         138.8698  145.1386  163.4516 N.ar    1  UNL1       -0.1635
      3 C         138.9387  144.7229  164.8912 C.ar    1  UNL1        0.1221
      4 C         139.7022  143.4339  164.9655 C.ar    1  UNL1        0.0416
      5 C         140.0826  142.5579  166.1221 C.ar    1  UNL1        0.0406
      6 C         140.8660  141.3009  165.8851 C.ar    1  UNL1        0.1455
      7 C         141.2689  140.9199  164.4913 C.ar    1  UNL1        0.0390
      8 C         140.8886  141.7960  163.3347 C.ar    1  UNL1        0.0223
      9 C         140.1052  143.0530  163.5718 C.ar    1  UNL1        0.0845
     10 C         140.3759  144.8199  158.9026 C.ar    1  UNL1        0.0843
     11 C         140.4185  145.2149  160.3490 C.ar    1  UNL1        0.0307
     12 C         139.7664  144.1247  161.1466 C.ar    1  UNL1        0.0899
     13 C         139.3208  143.0560  160.1931 C.ar    1  UNL1        0.0547
     14 S         139.6975  143.4855  158.8062 S.2     1  UNL1       -0.0803
     15 C         140.6013  146.6744  155.4010 C.3     1  UNL1        0.1110
     16 N         140.0604  145.8754  156.5495 N.am    1  UNL1       -0.2987
     17 C         140.9168  145.6190  157.7540 C.2     1  UNL1        0.2520
     18 O         142.3141  146.1617  157.8101 O.2     1  UNL1       -0.2696
     19 H         139.1433  145.5192  156.5127 H       1  UNL1        0.1498
     20 O         141.2464  140.4249  167.0417 O.3     1  UNL1       -0.4526
     21 C         141.5603  141.0370  168.3747 C.ar    1  UNL1        0.1557
     22 C         142.8718  141.7325  168.5904 C.ar    1  UNL1        0.0384
     23 C         143.1857  142.3446  169.9234 C.ar    1  UNL1        0.0032
     24 C         142.1883  142.2611  171.0406 C.ar    1  UNL1        0.0011
     25 C         140.8769  141.5656  170.8249 C.ar    1  UNL1        0.0145
     26 C         140.5630  140.9535  169.4919 C.ar    1  UNL1        0.0921
     27 CL        139.2515  140.2580  169.2762 Cl      1  UNL1       -0.0791
@<TRIPOS>BOND
     1    15    16    1
     2    16    17   am
     3    17    18    2
     4    17    10    1
     5    10    11   ar
     6    11    12   ar
     7    12     1    1
     8     1     2   ar
     9     2     3   ar
    10     3     4   ar
    11     4     5   ar
    12     5     6   ar
    13     6    20    1
    14    20    21    1
    15    21    22   ar
    16    22    23   ar
    17    23    24   ar
    18    24    25   ar
    19    25    26   ar
    20    26    27    1
    21     6     7   ar
    22     7     8   ar
    23     8     9   ar
    24    12    13   ar
    25    13    14   ar
    26    14    10   ar
    27     9     1   ar
    28     9     4   ar
    29    26    21   ar
    30    16    19    1
@<TRIPOS>MOLECULE
*****
 27 30 0 0 0
SMALL
GASTEIGER

@<TRIPOS>ATOM
      1 N         139.3283  143.6289  162.5326 N.ar    1  UNL1       -0.2291
      2 N         139.0460  144.9384  163.2075 N.ar    1  UNL1       -0.1635
      3 C         139.2654  144.7575  164.6803 C.ar    1  UNL1        0.1221
      4 C         139.6833  143.3363  164.9157 C.ar    1  UNL1        0.0416
      5 C         140.0335  142.5872  166.1671 C.ar    1  UNL1        0.0406
      6 C         140.4226  141.1405  166.0912 C.ar    1  UNL1        0.1455
      7 C         140.4614  140.4430  164.7639 C.ar    1  UNL1        0.0390
      8 C         140.1113  141.1921  163.5124 C.ar    1  UNL1        0.0223
      9 C         139.7222  142.6387  163.5883 C.ar    1  UNL1        0.0845
     10 C         138.5289  142.4543  158.9206 C.ar    1  UNL1        0.0843
     11 C         138.2741  142.4131  160.3982 C.ar    1  UNL1        0.0307
     12 C         139.2334  143.3572  161.0605 C.ar    1  UNL1        0.0899
     13 C         140.0810  143.9817  159.9922 C.ar    1  UNL1        0.0547
     14 S         139.6457  143.4238  158.6696 S.2     1  UNL1       -0.0803
     15 C         136.2232  141.5814  155.8106 C.3     1  UNL1        0.1110
     16 N         136.9564  142.3710  156.8541 N.am    1  UNL1       -0.2987
     17 C         137.7957  141.6646  157.8771 C.2     1  UNL1        0.2520
     18 O         137.9017  140.1685  157.8566 O.2     1  UNL1       -0.2696
     19 H         136.8868  143.3530  156.8675 H       1  UNL1        0.1498
     20 O         140.7728  140.3914  167.3428 O.3     1  UNL1       -0.4526
     21 C         141.4100  141.1112  168.4942 C.ar    1  UNL1        0.1557
     22 C         142.8078  141.6404  168.3669 C.ar    1  UNL1        0.0384
     23 C         143.4450  142.3602  169.5183 C.ar    1  UNL1        0.0032
     24 C         142.6844  142.5507  170.7972 C.ar    1  UNL1        0.0011
     25 C         141.2867  142.0215  170.9245 C.ar    1  UNL1        0.0145
     26 C         140.6495  141.3017  169.7730 C.ar    1  UNL1        0.0921
     27 CL        139.2517  140.7724  169.9003 Cl      1  UNL1       -0.0791
@<TRIPOS>BOND
     1    15    16    1
     2    16    17   am
     3    17    18    2
     4    17    10    1
     5    10    11   ar
     6    11    12   ar
     7    12     1    1
     8     1     2   ar
     9     2     3   ar
    10     3     4   ar
    11     4     5   ar
    12     5     6   ar
    13     6    20    1
    14    20    21    1
    15    21    22   ar
    16    22    23   ar
    17    23    24   ar
    18    24    25   ar
    19    25    26   ar
    20    26    27    1
    21     6     7   ar
    22     7     8   ar
    23     8     9   ar
    24    12    13   ar
    25    13    14   ar
    26    14    10   ar
    27     9     1   ar
    28     9     4   ar
    29    26    21   ar
    30    16    19    1
@<TRIPOS>MOLECULE
*****
 27 30 0 0 0
SMALL
GASTEIGER

@<TRIPOS>ATOM
      1 N         141.9110  138.8744  161.9003 N.ar    1  UNL1       -0.2291
      2 N         141.2470  137.5317  161.9793 N.ar    1  UNL1       -0.1635
      3 C         141.1633  137.1404  163.4250 C.ar    1  UNL1        0.1221
      4 C         141.7756  138.2412  164.2394 C.ar    1  UNL1        0.0416
      5 C         141.9721  138.4061  165.7173 C.ar    1  UNL1        0.0406
      6 C         142.6307  139.6428  166.2528 C.ar    1  UNL1        0.1455
      7 C         143.0929  140.7145  165.3105 C.ar    1  UNL1        0.0390
      8 C         142.8964  140.5495  163.8327 C.ar    1  UNL1        0.0223
      9 C         142.2378  139.3129  163.2971 C.ar    1  UNL1        0.0845
     10 C         143.3433  140.5678  158.7151 C.ar    1  UNL1        0.0843
     11 C         143.5053  139.6760  159.9102 C.ar    1  UNL1        0.0307
     12 C         142.1980  139.6436  160.6449 C.ar    1  UNL1        0.0899
     13 C         141.2281  140.5153  159.9039 C.ar    1  UNL1        0.0547
     14 S         141.9358  141.0866  158.7111 S.2     1  UNL1       -0.0803
     15 C         145.7877  140.2135  155.6086 C.3     1  UNL1        0.1110
     16 N         144.7282  139.8961  156.6219 N.am    1  UNL1       -0.2987
     17 C         144.4028  140.8852  157.7017 C.2     1  UNL1        0.2520
     18 O         145.1369  142.1916  157.7681 O.2     1  UNL1       -0.2696
     19 H         144.2464  139.0387  156.5784 H       1  UNL1        0.1498
     20 O         142.8273  139.8078  167.7308 O.3     1  UNL1       -0.4526
     21 C         141.8363  140.5952  168.5358 C.ar    1  UNL1        0.1557
     22 C         140.4474  140.0669  168.7403 C.ar    1  UNL1        0.0384
     23 C         139.4564  140.8543  169.5454 C.ar    1  UNL1        0.0032
     24 C         139.8545  142.1700  170.1459 C.ar    1  UNL1        0.0011
     25 C         141.2434  142.6982  169.9414 C.ar    1  UNL1        0.0145
     26 C         142.2343  141.9108  169.1364 C.ar    1  UNL1        0.0921
     27 CL        143.6233  142.4391  168.9319 Cl      1  UNL1       -0.0791
@<TRIPOS>BOND
     1    15    16    1
     2    16    17   am
     3    17    18    2
     4    17    10    1
     5    10    11   ar
     6    11    12   ar
     7    12     1    1
     8     1     2   ar
     9     2     3   ar
    10     3     4   ar
    11     4     5   ar
    12     5     6   ar
    13     6    20    1
    14    20    21    1
    15    21    22   ar
    16    22    23   ar
    17    23    24   ar
    18    24    25   ar
    19    25    26   ar
    20    26    27    1
    21     6     7   ar
    22     7     8   ar
    23     8     9   ar
    24    12    13   ar
    25    13    14   ar
    26    14    10   ar
    27     9     1   ar
    28     9     4   ar
    29    26    21   ar
    30    16    19    1
@<TRIPOS>MOLECULE
*****
 27 30 0 0 0
SMALL
GASTEIGER

@<TRIPOS>ATOM
      1 N         139.3525  138.7697  162.5007 N.ar    1  UNL1       -0.2291
      2 N         138.6187  137.6535  163.1831 N.ar    1  UNL1       -0.1635
      3 C         139.0354  137.6376  164.6239 C.ar    1  UNL1        0.1221
      4 C         140.0267  138.7440  164.8320 C.ar    1  UNL1        0.0416
      5 C         140.7762  139.2048  166.0469 C.ar    1  UNL1        0.0406
      6 C         141.7217  140.3652  165.9494 C.ar    1  UNL1        0.1455
      7 C         141.9176  141.0648  164.6372 C.ar    1  UNL1        0.0390
      8 C         141.1681  140.6041  163.4223 C.ar    1  UNL1        0.0223
      9 C         140.2226  139.4437  163.5197 C.ar    1  UNL1        0.0845
     10 C         138.4946  140.1912  158.9923 C.ar    1  UNL1        0.0843
     11 C         138.2568  140.1217  160.4717 C.ar    1  UNL1        0.0307
     12 C         139.2364  139.1459  161.0532 C.ar    1  UNL1        0.0899
     13 C         140.0796  138.6124  159.9333 C.ar    1  UNL1        0.0547
     14 S         139.6211  139.2584  158.6595 S.2     1  UNL1       -0.0803
     15 C         136.0368  141.2611  156.0657 C.3     1  UNL1        0.1110
     16 N         136.7929  140.4085  157.0410 N.am    1  UNL1       -0.2987
     17 C         137.7384  141.0439  158.0169 C.2     1  UNL1        0.2520
     18 O         137.9279  142.5319  158.0174 O.2     1  UNL1       -0.2696
     19 H         136.6686  139.4319  157.0407 H       1  UNL1        0.1498
     20 O         142.4712  140.8260  167.1643 O.3     1  UNL1       -0.4526
     21 C         141.7241  141.3799  168.3412 C.ar    1  UNL1        0.1557
     22 C         141.0693  142.7263  168.2478 C.ar    1  UNL1        0.0384
     23 C         140.3222  143.2802  169.4246 C.ar    1  UNL1        0.0032
     24 C         140.2299  142.4877  170.6949 C.ar    1  UNL1        0.0011
     25 C         140.8847  141.1414  170.7883 C.ar    1  UNL1        0.0145
     26 C         141.6318  140.5875  169.6115 C.ar    1  UNL1        0.0921
     27 CL        142.2866  139.2412  169.7049 Cl      1  UNL1       -0.0791
@<TRIPOS>BOND
     1    15    16    1
     2    16    17   am
     3    17    18    2
     4    17    10    1
     5    10    11   ar
     6    11    12   ar
     7    12     1    1
     8     1     2   ar
     9     2     3   ar
    10     3     4   ar
    11     4     5   ar
    12     5     6   ar
    13     6    20    1
    14    20    21    1
    15    21    22   ar
    16    22    23   ar
    17    23    24   ar
    18    24    25   ar
    19    25    26   ar
    20    26    27    1
    21     6     7   ar
    22     7     8   ar
    23     8     9   ar
    24    12    13   ar
    25    13    14   ar
    26    14    10   ar
    27     9     1   ar
    28     9     4   ar
    29    26    21   ar
    30    16    19    1
@<TRIPOS>MOLECULE
*****
 27 30 0 0 0
SMALL
GASTEIGER

@<TRIPOS>ATOM
      1 N         139.6451  138.7843  162.8014 N.ar    1  UNL1       -0.2291
      2 N         138.9601  137.7164  163.6016 N.ar    1  UNL1       -0.1635
      3 C         138.8099  138.2157  165.0080 C.ar    1  UNL1        0.1221
      4 C         139.4020  139.5922  165.0771 C.ar    1  UNL1        0.0416
      5 C         139.5378  140.5709  166.2055 C.ar    1  UNL1        0.0406
      6 C         140.1898  141.9011  165.9702 C.ar    1  UNL1        0.1455
      7 C         140.7060  142.2525  164.6064 C.ar    1  UNL1        0.0390
      8 C         140.5702  141.2737  163.4779 C.ar    1  UNL1        0.0223
      9 C         139.9182  139.9436  163.7132 C.ar    1  UNL1        0.0845
     10 C         141.2450  138.4257  159.2833 C.ar    1  UNL1        0.0843
     11 C         141.3506  138.4000  160.7793 C.ar    1  UNL1        0.0307
     12 C         139.9956  138.7066  161.3450 C.ar    1  UNL1        0.0899
     13 C         139.0526  138.9218  160.1985 C.ar    1  UNL1        0.0547
     14 S         139.8247  138.7482  158.9242 S.2     1  UNL1       -0.0803
     15 C         143.3432  136.8532  156.3041 C.3     1  UNL1        0.1110
     16 N         142.2249  137.1057  157.2714 N.am    1  UNL1       -0.2987
     17 C         142.3634  138.1733  158.3160 C.2     1  UNL1        0.2520
     18 O         143.6202  138.9884  158.3933 O.2     1  UNL1       -0.2696
     19 H         141.4000  136.5707  157.2207 H       1  UNL1        0.1498
     20 O         140.3256  142.8800  167.0987 O.3     1  UNL1       -0.4526
     21 C         140.9436  142.4484  168.3956 C.ar    1  UNL1        0.1557
     22 C         140.0819  142.2483  169.6071 C.ar    1  UNL1        0.0384
     23 C         140.6999  141.8167  170.9039 C.ar    1  UNL1        0.0032
     24 C         142.1795  141.5852  170.9893 C.ar    1  UNL1        0.0011
     25 C         143.0411  141.7852  169.7779 C.ar    1  UNL1        0.0145
     26 C         142.4231  142.2168  168.4810 C.ar    1  UNL1        0.0921
     27 CL        143.2848  142.4169  167.2695 Cl      1  UNL1       -0.0791
@<TRIPOS>BOND
     1    15    16    1
     2    16    17   am
     3    17    18    2
     4    17    10    1
     5    10    11   ar
     6    11    12   ar
     7    12     1    1
     8     1     2   ar
     9     2     3   ar
    10     3     4   ar
    11     4     5   ar
    12     5     6   ar
    13     6    20    1
    14    20    21    1
    15    21    22   ar
    16    22    23   ar
    17    23    24   ar
    18    24    25   ar
    19    25    26   ar
    20    26    27    1
    21     6     7   ar
    22     7     8   ar
    23     8     9   ar
    24    12    13   ar
    25    13    14   ar
    26    14    10   ar
    27     9     1   ar
    28     9     4   ar
    29    26    21   ar
    30    16    19    1
@<TRIPOS>MOLECULE
*****
 27 30 0 0 0
SMALL
GASTEIGER

@<TRIPOS>ATOM
      1 N         142.6891  140.5031  161.9187 N.ar    1  UNL1       -0.2291
      2 N         143.1494  141.9297  161.8633 N.ar    1  UNL1       -0.1635
      3 C         143.3606  142.4034  163.2708 C.ar    1  UNL1        0.1221
      4 C         143.0309  141.2697  164.1960 C.ar    1  UNL1        0.0416
      5 C         143.0549  141.1551  165.6914 C.ar    1  UNL1        0.0406
      6 C         142.6640  139.8659  166.3511 C.ar    1  UNL1        0.1455
      7 C         142.2491  138.6914  165.5154 C.ar    1  UNL1        0.0390
      8 C         142.2250  138.8061  164.0200 C.ar    1  UNL1        0.0223
      9 C         142.6159  140.0952  163.3603 C.ar    1  UNL1        0.0845
     10 C         141.1876  138.6425  158.8611 C.ar    1  UNL1        0.0843
     11 C         141.0892  139.6765  159.9433 C.ar    1  UNL1        0.0307
     12 C         142.3599  139.6365  160.7394 C.ar    1  UNL1        0.0899
     13 C         143.2435  138.5778  160.1492 C.ar    1  UNL1        0.0547
     14 S         142.5190  137.9634  158.9883 S.2     1  UNL1       -0.0803
     15 C         139.2895  136.9081  155.8379 C.3     1  UNL1        0.1110
     16 N         140.3384  137.2101  156.8667 N.am    1  UNL1       -0.2987
     17 C         140.1385  138.3406  157.8322 C.2     1  UNL1        0.2520
     18 O         138.8897  139.1691  157.7688 O.2     1  UNL1       -0.2696
     19 H         141.1580  136.6663  156.9084 H       1  UNL1        0.1498
     20 O         142.6881  139.7513  167.8465 O.3     1  UNL1       -0.4526
     21 C         141.7262  140.5497  168.6755 C.ar    1  UNL1        0.1557
     22 C         140.3285  140.0499  168.8922 C.ar    1  UNL1        0.0384
     23 C         139.3666  140.8484  169.7212 C.ar    1  UNL1        0.0032
     24 C         139.8023  142.1466  170.3334 C.ar    1  UNL1        0.0011
     25 C         141.1999  142.6464  170.1167 C.ar    1  UNL1        0.0145
     26 C         142.1618  141.8479  169.2877 C.ar    1  UNL1        0.0921
     27 CL        143.5594  142.3477  169.0710 Cl      1  UNL1       -0.0791
@<TRIPOS>BOND
     1    15    16    1
     2    16    17   am
     3    17    18    2
     4    17    10    1
     5    10    11   ar
     6    11    12   ar
     7    12     1    1
     8     1     2   ar
     9     2     3   ar
    10     3     4   ar
    11     4     5   ar
    12     5     6   ar
    13     6    20    1
    14    20    21    1
    15    21    22   ar
    16    22    23   ar
    17    23    24   ar
    18    24    25   ar
    19    25    26   ar
    20    26    27    1
    21     6     7   ar
    22     7     8   ar
    23     8     9   ar
    24    12    13   ar
    25    13    14   ar
    26    14    10   ar
    27     9     1   ar
    28     9     4   ar
    29    26    21   ar
    30    16    19    1
