@<TRIPOS>MOLECULE
*****
 40 44 0 0 0
SMALL
GASTEIGER

@<TRIPOS>ATOM
      1 C         142.8503  140.1159  159.9202 C.2     1  UNL1        0.2495
      2 O         141.5325  140.0917  160.6364 O.2     1  UNL1       -0.2698
      3 N         144.0669  140.6632  160.6060 N.am    1  UNL1       -0.2804
      4 H         144.9317  140.6790  160.1359 H       1  UNL1        0.1552
      5 C         143.2550  138.0228  154.3116 C.3     1  UNL1        0.0317
      6 C         143.1539  138.5461  155.7137 C.ar    1  UNL1       -0.0142
      7 C         143.3492  140.0084  155.9845 C.ar    1  UNL1       -0.0035
      8 C         143.2480  140.5317  157.3865 C.ar    1  UNL1        0.0042
      9 C         142.9515  139.5926  158.5180 C.ar    1  UNL1        0.0543
     10 C         142.7562  138.1302  158.2473 C.ar    1  UNL1        0.0124
     11 C         142.8574  137.6070  156.8452 C.ar    1  UNL1        0.0382
     12 C         142.6620  136.1446  156.5744 C.1     1  UNL1       -0.0585
     13 C         142.4667  134.6822  156.3038 C.1     1  UNL1       -0.0388
     14 C         142.2713  133.2198  156.0330 C.ar    1  UNL1        0.1451
     15 C         141.2372  132.6215  155.1261 C.ar    1  UNL1        0.1281
     16 N         141.4026  131.1309  155.1543 N.ar    1  UNL1       -0.2228
     17 C         142.5390  130.8080  156.0786 C.ar    1  UNL1        0.1646
     18 C         143.1542  129.5052  156.4960 C.ar    1  UNL1        0.0405
     19 C         144.3063  129.4934  157.4564 C.ar    1  UNL1        0.0256
     20 C         144.8432  130.7845  157.9995 C.ar    1  UNL1        0.1207
     21 N         144.2280  132.0873  157.5822 N.ar    1  UNL1       -0.1616
     22 N         143.0759  132.0990  156.6218 N.ar    1  UNL1       -0.2030
     23 C         143.9657  141.1864  162.0081 C.ar    1  UNL1        0.0505
     24 C         144.4406  140.3481  163.1577 C.ar    1  UNL1        0.0144
     25 C         144.3395  140.8713  164.5598 C.ar    1  UNL1       -0.0017
     26 C         143.7633  142.2330  164.8124 C.ar    1  UNL1       -0.0022
     27 C         143.2883  143.0715  163.6629 C.ar    1  UNL1        0.0700
     28 C         143.3895  142.5482  162.2608 C.ar    1  UNL1        0.0183
     29 C         142.7122  144.4331  163.9154 C.3     1  UNL1        0.4184
     30 F         142.1361  145.7949  164.1679 F       1  UNL1       -0.1659
     31 F         141.3429  143.8321  164.0328 F       1  UNL1       -0.1659
     32 F         144.0815  145.0342  163.7981 F       1  UNL1       -0.1659
     33 C         143.6621  142.7562  166.2146 C.3     1  UNL1        0.0992
     34 N         142.6012  142.2317  167.1361 N.3     1  UNL1       -0.2665
     35 C         141.2776  141.7930  166.5833 C.3     1  UNL1        0.0899
     36 C         140.2167  141.2684  167.5048 C.3     1  UNL1        0.0897
     37 N         140.4794  141.1826  168.9792 N.3     1  UNL1       -0.2691
     38 C         139.4184  140.6580  169.9007 C.3     1  UNL1        0.0897
     39 C         141.8030  141.6213  169.5320 C.3     1  UNL1        0.0897
     40 C         142.8639  142.1459  168.6104 C.3     1  UNL1        0.0899
@<TRIPOS>BOND
     1     5     6    1
     2     6     7   ar
     3     7     8   ar
     4     8     9   ar
     5     9     1    1
     6     1     2    2
     7     1     3   am
     8     3    23    1
     9    23    24   ar
    10    24    25   ar
    11    25    26   ar
    12    26    33    1
    13    33    34    1
    14    34    35    1
    15    35    36    1
    16    36    37    1
    17    37    38    1
    18    37    39    1
    19    39    40    1
    20    26    27   ar
    21    27    29    1
    22    29    30    1
    23    29    31    1
    24    29    32    1
    25    27    28   ar
    26     9    10   ar
    27    10    11   ar
    28    11    12    1
    29    12    13    3
    30    13    14    1
    31    14    15   ar
    32    15    16   ar
    33    16    17   ar
    34    17    18   ar
    35    18    19   ar
    36    19    20   ar
    37    20    21   ar
    38    21    22   ar
    39    11     6   ar
    40    22    14   ar
    41    28    23   ar
    42    22    17   ar
    43    40    34    1
    44     3     4    1
@<TRIPOS>MOLECULE
*****
 40 44 0 0 0
SMALL
GASTEIGER

@<TRIPOS>ATOM
      1 C         138.6684  141.5102  160.0528 C.2     1  UNL1        0.2495
      2 O         139.7217  142.3185  160.7509 O.2     1  UNL1       -0.2698
      3 N         137.8890  140.4779  160.8123 N.am    1  UNL1       -0.2804
      4 H         137.1978  139.9474  160.3541 H       1  UNL1        0.1552
      5 C         137.5726  142.4067  154.2222 C.3     1  UNL1        0.0317
      6 C         137.8466  142.1826  155.6798 C.ar    1  UNL1       -0.0142
      7 C         137.4077  140.9083  156.3382 C.ar    1  UNL1       -0.0035
      8 C         137.6816  140.6841  157.7958 C.ar    1  UNL1        0.0042
      9 C         138.3944  141.7343  158.5952 C.ar    1  UNL1        0.0543
     10 C         138.8333  143.0087  157.9368 C.ar    1  UNL1        0.0124
     11 C         138.5594  143.2328  156.4791 C.ar    1  UNL1        0.0382
     12 C         138.9983  144.5071  155.8208 C.1     1  UNL1       -0.0585
     13 C         139.4371  145.7815  155.1625 C.1     1  UNL1       -0.0388
     14 C         139.8760  147.0558  154.5041 C.ar    1  UNL1        0.1451
     15 C         140.7933  147.1673  153.3225 C.ar    1  UNL1        0.1281
     16 N         140.9589  148.6228  152.9999 N.ar    1  UNL1       -0.2228
     17 C         140.1439  149.4109  153.9821 C.ar    1  UNL1        0.1646
     18 C         139.9247  150.8852  154.1500 C.ar    1  UNL1        0.0405
     19 C         139.0363  151.3911  155.2476 C.ar    1  UNL1        0.0256
     20 C         138.3671  150.4227  156.1773 C.ar    1  UNL1        0.1207
     21 N         138.5863  148.9484  156.0093 N.ar    1  UNL1       -0.1616
     22 N         139.4747  148.4425  154.9117 N.ar    1  UNL1       -0.2030
     23 C         138.1630  140.2538  162.2699 C.ar    1  UNL1        0.0505
     24 C         137.6159  141.2066  163.2911 C.ar    1  UNL1        0.0144
     25 C         137.8899  140.9825  164.7487 C.ar    1  UNL1       -0.0017
     26 C         138.7109  139.8055  165.1853 C.ar    1  UNL1       -0.0022
     27 C         139.2580  138.8526  164.1642 C.ar    1  UNL1        0.0700
     28 C         138.9840  139.0768  162.7065 C.ar    1  UNL1        0.0183
     29 C         140.0791  137.6757  164.6006 C.3     1  UNL1        0.4184
     30 F         140.9000  136.4986  165.0371 F       1  UNL1       -0.1659
     31 F         141.3342  138.4351  164.2878 F       1  UNL1       -0.1659
     32 F         138.8239  136.9162  164.9135 F       1  UNL1       -0.1659
     33 C         138.9849  139.5814  166.6429 C.3     1  UNL1        0.0992
     34 N         140.1398  140.2735  167.3040 N.3     1  UNL1       -0.2665
     35 C         141.1571  140.9964  166.4718 C.3     1  UNL1        0.0899
     36 C         142.3120  141.6884  167.1330 C.3     1  UNL1        0.0897
     37 N         142.4498  141.6575  168.6263 N.3     1  UNL1       -0.2691
     38 C         143.6048  142.3496  169.2875 C.3     1  UNL1        0.0897
     39 C         141.4325  140.9346  169.4585 C.3     1  UNL1        0.0897
     40 C         140.2775  140.2426  168.7974 C.3     1  UNL1        0.0899
@<TRIPOS>BOND
     1     5     6    1
     2     6     7   ar
     3     7     8   ar
     4     8     9   ar
     5     9     1    1
     6     1     2    2
     7     1     3   am
     8     3    23    1
     9    23    24   ar
    10    24    25   ar
    11    25    26   ar
    12    26    33    1
    13    33    34    1
    14    34    35    1
    15    35    36    1
    16    36    37    1
    17    37    38    1
    18    37    39    1
    19    39    40    1
    20    26    27   ar
    21    27    29    1
    22    29    30    1
    23    29    31    1
    24    29    32    1
    25    27    28   ar
    26     9    10   ar
    27    10    11   ar
    28    11    12    1
    29    12    13    3
    30    13    14    1
    31    14    15   ar
    32    15    16   ar
    33    16    17   ar
    34    17    18   ar
    35    18    19   ar
    36    19    20   ar
    37    20    21   ar
    38    21    22   ar
    39    11     6   ar
    40    22    14   ar
    41    28    23   ar
    42    22    17   ar
    43    40    34    1
    44     3     4    1
@<TRIPOS>MOLECULE
*****
 40 44 0 0 0
SMALL
GASTEIGER

@<TRIPOS>ATOM
      1 C         143.6377  137.8795  156.2848 C.2     1  UNL1        0.2495
      2 O         144.8885  137.5116  155.5431 O.2     1  UNL1       -0.2698
      3 N         142.5537  136.8611  156.4790 N.am    1  UNL1       -0.2804
      4 H         141.7328  137.1026  156.9658 H       1  UNL1        0.1552
      5 C         142.9705  143.4255  158.4750 C.3     1  UNL1        0.0317
      6 C         143.1373  142.0390  157.9274 C.ar    1  UNL1       -0.0142
      7 C         144.1845  141.7635  156.8894 C.ar    1  UNL1       -0.0035
      8 C         144.3513  140.3771  156.3419 C.ar    1  UNL1        0.0042
      9 C         143.4709  139.2660  156.8323 C.ar    1  UNL1        0.0543
     10 C         142.4237  139.5415  157.8703 C.ar    1  UNL1        0.0124
     11 C         142.2569  140.9280  158.4178 C.ar    1  UNL1        0.0382
     12 C         141.2097  141.2036  159.4558 C.1     1  UNL1       -0.0585
     13 C         140.1624  141.4791  160.4938 C.1     1  UNL1       -0.0388
     14 C         139.1152  141.7546  161.5318 C.ar    1  UNL1        0.1451
     15 C         137.8172  141.0199  161.6914 C.ar    1  UNL1        0.1281
     16 N         137.0820  141.6245  162.8507 N.ar    1  UNL1       -0.2228
     17 C         137.9256  142.7328  163.4076 C.ar    1  UNL1        0.1646
     18 C         137.7118  143.6791  164.5515 C.ar    1  UNL1        0.0405
     19 C         138.7547  144.7059  164.8804 C.ar    1  UNL1        0.0256
     20 C         140.0113  144.7863  164.0652 C.ar    1  UNL1        0.1207
     21 N         140.2251  143.8399  162.9213 N.ar    1  UNL1       -0.1616
     22 N         139.1822  142.8132  162.5924 N.ar    1  UNL1       -0.2030
     23 C         142.7205  135.4746  155.9314 C.ar    1  UNL1        0.0505
     24 C         142.2853  135.1642  154.5300 C.ar    1  UNL1        0.0144
     25 C         142.4521  133.7777  153.9824 C.ar    1  UNL1       -0.0017
     26 C         143.0541  132.7015  154.8364 C.ar    1  UNL1       -0.0022
     27 C         143.4894  133.0118  156.2379 C.ar    1  UNL1        0.0700
     28 C         143.3226  134.3983  156.7854 C.ar    1  UNL1        0.0183
     29 C         144.0915  131.9357  157.0920 C.3     1  UNL1        0.4184
     30 F         144.6934  130.8595  157.9461 F       1  UNL1       -0.1659
     31 F         145.4641  132.3670  156.6680 F       1  UNL1       -0.1659
     32 F         142.7188  131.5042  157.5160 F       1  UNL1       -0.1659
     33 C         143.2209  131.3150  154.2889 C.3     1  UNL1        0.0992
     34 N         142.2053  130.2571  154.6039 N.3     1  UNL1       -0.2665
     35 C         140.7418  130.5793  154.5389 C.3     1  UNL1        0.0899
     36 C         139.7262  129.5214  154.8539 C.3     1  UNL1        0.0897
     37 N         140.1741  128.1412  155.2339 N.3     1  UNL1       -0.2691
     38 C         139.1584  127.0831  155.5489 C.3     1  UNL1        0.0897
     39 C         141.6376  127.8189  155.2989 C.3     1  UNL1        0.0897
     40 C         142.6533  128.8768  154.9839 C.3     1  UNL1        0.0899
@<TRIPOS>BOND
     1     5     6    1
     2     6     7   ar
     3     7     8   ar
     4     8     9   ar
     5     9     1    1
     6     1     2    2
     7     1     3   am
     8     3    23    1
     9    23    24   ar
    10    24    25   ar
    11    25    26   ar
    12    26    33    1
    13    33    34    1
    14    34    35    1
    15    35    36    1
    16    36    37    1
    17    37    38    1
    18    37    39    1
    19    39    40    1
    20    26    27   ar
    21    27    29    1
    22    29    30    1
    23    29    31    1
    24    29    32    1
    25    27    28   ar
    26     9    10   ar
    27    10    11   ar
    28    11    12    1
    29    12    13    3
    30    13    14    1
    31    14    15   ar
    32    15    16   ar
    33    16    17   ar
    34    17    18   ar
    35    18    19   ar
    36    19    20   ar
    37    20    21   ar
    38    21    22   ar
    39    11     6   ar
    40    22    14   ar
    41    28    23   ar
    42    22    17   ar
    43    40    34    1
    44     3     4    1
@<TRIPOS>MOLECULE
*****
 40 44 0 0 0
SMALL
GASTEIGER

@<TRIPOS>ATOM
      1 C         141.6777  138.9704  160.3668 C.2     1  UNL1        0.2495
      2 O         142.5336  139.7369  161.3311 O.2     1  UNL1       -0.2698
      3 N         140.3397  138.4499  160.8012 N.am    1  UNL1       -0.2804
      4 H         139.7780  137.9468  160.1683 H       1  UNL1        0.1552
      5 C         143.6064  137.9867  154.7710 C.3     1  UNL1        0.0317
      6 C         143.1242  138.2326  156.1699 C.ar    1  UNL1       -0.0142
      7 C         142.7857  139.6252  156.6126 C.ar    1  UNL1       -0.0035
      8 C         142.3036  139.8712  158.0115 C.ar    1  UNL1        0.0042
      9 C         142.1598  138.7245  158.9678 C.ar    1  UNL1        0.0543
     10 C         142.4983  137.3319  158.5251 C.ar    1  UNL1        0.0124
     11 C         142.9805  137.0860  157.1262 C.ar    1  UNL1        0.0382
     12 C         143.3190  135.6933  156.6835 C.1     1  UNL1       -0.0585
     13 C         143.6574  134.3007  156.2407 C.1     1  UNL1       -0.0388
     14 C         143.9960  132.9080  155.7980 C.ar    1  UNL1        0.1451
     15 C         144.9356  131.9664  156.4911 C.ar    1  UNL1        0.1281
     16 N         144.9746  130.6890  155.7059 N.ar    1  UNL1       -0.2228
     17 C         144.0590  130.8410  154.5275 C.ar    1  UNL1        0.1646
     18 C         143.6979  129.9079  153.4100 C.ar    1  UNL1        0.0405
     19 C         142.7320  130.3462  152.3495 C.ar    1  UNL1        0.0256
     20 C         142.1271  131.7176  152.4064 C.ar    1  UNL1        0.1207
     21 N         142.4882  132.6508  153.5239 N.ar    1  UNL1       -0.1616
     22 N         143.4542  132.2125  154.5844 N.ar    1  UNL1       -0.2030
     23 C         139.8575  138.6958  162.2002 C.ar    1  UNL1        0.0505
     24 C         139.9252  137.5985  163.2206 C.ar    1  UNL1        0.0144
     25 C         139.4430  137.8445  164.6196 C.ar    1  UNL1       -0.0017
     26 C         138.8931  139.1877  164.9981 C.ar    1  UNL1       -0.0022
     27 C         138.8254  140.2851  163.9777 C.ar    1  UNL1        0.0700
     28 C         139.3076  140.0391  162.5787 C.ar    1  UNL1        0.0183
     29 C         138.2756  141.6283  164.3561 C.3     1  UNL1        0.4184
     30 F         137.7256  142.9716  164.7345 F       1  UNL1       -0.1659
     31 F         139.6218  142.0319  164.8802 F       1  UNL1       -0.1659
     32 F         136.9292  141.2248  163.8320 F       1  UNL1       -0.1659
     33 C         138.4110  139.4336  166.3970 C.3     1  UNL1        0.0992
     34 N         139.3905  139.7871  167.4766 N.3     1  UNL1       -0.2665
     35 C         138.9239  139.9306  168.8950 C.3     1  UNL1        0.0899
     36 C         139.9034  140.2841  169.9745 C.3     1  UNL1        0.0897
     37 N         141.3495  140.4940  169.6358 N.3     1  UNL1       -0.2691
     38 C         142.3291  140.8475  170.7155 C.3     1  UNL1        0.0897
     39 C         141.8161  140.3505  168.2175 C.3     1  UNL1        0.0897
     40 C         140.8366  139.9970  167.1378 C.3     1  UNL1        0.0899
@<TRIPOS>BOND
     1     5     6    1
     2     6     7   ar
     3     7     8   ar
     4     8     9   ar
     5     9     1    1
     6     1     2    2
     7     1     3   am
     8     3    23    1
     9    23    24   ar
    10    24    25   ar
    11    25    26   ar
    12    26    33    1
    13    33    34    1
    14    34    35    1
    15    35    36    1
    16    36    37    1
    17    37    38    1
    18    37    39    1
    19    39    40    1
    20    26    27   ar
    21    27    29    1
    22    29    30    1
    23    29    31    1
    24    29    32    1
    25    27    28   ar
    26     9    10   ar
    27    10    11   ar
    28    11    12    1
    29    12    13    3
    30    13    14    1
    31    14    15   ar
    32    15    16   ar
    33    16    17   ar
    34    17    18   ar
    35    18    19   ar
    36    19    20   ar
    37    20    21   ar
    38    21    22   ar
    39    11     6   ar
    40    22    14   ar
    41    28    23   ar
    42    22    17   ar
    43    40    34    1
    44     3     4    1
@<TRIPOS>MOLECULE
*****
 40 44 0 0 0
SMALL
GASTEIGER

@<TRIPOS>ATOM
      1 C         142.9502  139.0452  158.8600 C.2     1  UNL1        0.2495
      2 O         144.2213  139.7976  159.1214 O.2     1  UNL1       -0.2698
      3 N         141.8969  138.9594  159.9244 N.am    1  UNL1       -0.2804
      4 H         141.0627  138.4656  159.7528 H       1  UNL1        0.1552
      5 C         142.0795  136.3784  153.5562 C.3     1  UNL1        0.0317
      6 C         142.2972  137.0450  154.8821 C.ar    1  UNL1       -0.0142
      7 C         142.3787  138.5405  154.9653 C.ar    1  UNL1       -0.0035
      8 C         142.5964  139.2072  156.2911 C.ar    1  UNL1        0.0042
      9 C         142.7326  138.3785  157.5340 C.ar    1  UNL1        0.0543
     10 C         142.6511  136.8830  157.4509 C.ar    1  UNL1        0.0124
     11 C         142.4334  136.2163  156.1249 C.ar    1  UNL1        0.0382
     12 C         142.3519  134.7209  156.0418 C.1     1  UNL1       -0.0585
     13 C         142.2705  133.2253  155.9586 C.1     1  UNL1       -0.0388
     14 C         142.1890  131.7299  155.8754 C.ar    1  UNL1        0.1451
     15 C         141.2629  130.9450  154.9944 C.ar    1  UNL1        0.1281
     16 N         141.5209  129.4868  155.2332 N.ar    1  UNL1       -0.2228
     17 C         142.6064  129.3704  156.2618 C.ar    1  UNL1        0.1646
     18 C         143.2722  128.1812  156.8883 C.ar    1  UNL1        0.0405
     19 C         144.3509  128.3784  157.9117 C.ar    1  UNL1        0.0256
     20 C         144.7638  129.7647  158.3087 C.ar    1  UNL1        0.1207
     21 N         144.0980  130.9539  157.6822 N.ar    1  UNL1       -0.1616
     22 N         143.0193  130.7567  156.6588 N.ar    1  UNL1       -0.2030
     23 C         142.1146  139.6261  161.2504 C.ar    1  UNL1        0.0505
     24 C         141.3375  140.8586  161.6068 C.ar    1  UNL1        0.0144
     25 C         141.5552  141.5253  162.9327 C.ar    1  UNL1       -0.0017
     26 C         142.5500  140.9595  163.9023 C.ar    1  UNL1       -0.0022
     27 C         143.3271  139.7270  163.5460 C.ar    1  UNL1        0.0700
     28 C         143.1094  139.0603  162.2200 C.ar    1  UNL1        0.0183
     29 C         144.3219  139.1611  164.5156 C.3     1  UNL1        0.4184
     30 F         145.3169  138.5952  165.4851 F       1  UNL1       -0.1659
     31 F         143.2460  138.3107  165.1234 F       1  UNL1       -0.1659
     32 F         145.3979  140.0114  163.9078 F       1  UNL1       -0.1659
     33 C         142.7676  141.6261  165.2283 C.3     1  UNL1        0.0992
     34 N         141.8398  141.3417  166.3720 N.3     1  UNL1       -0.2665
     35 C         140.8022  140.2658  166.2464 C.3     1  UNL1        0.0899
     36 C         139.8745  139.9814  167.3902 C.3     1  UNL1        0.0897
     37 N         139.9843  140.7728  168.6596 N.3     1  UNL1       -0.2691
     38 C         139.0564  140.4883  169.8035 C.3     1  UNL1        0.0897
     39 C         141.0219  141.8487  168.7853 C.3     1  UNL1        0.0897
     40 C         141.9497  142.1332  167.6415 C.3     1  UNL1        0.0899
@<TRIPOS>BOND
     1     5     6    1
     2     6     7   ar
     3     7     8   ar
     4     8     9   ar
     5     9     1    1
     6     1     2    2
     7     1     3   am
     8     3    23    1
     9    23    24   ar
    10    24    25   ar
    11    25    26   ar
    12    26    33    1
    13    33    34    1
    14    34    35    1
    15    35    36    1
    16    36    37    1
    17    37    38    1
    18    37    39    1
    19    39    40    1
    20    26    27   ar
    21    27    29    1
    22    29    30    1
    23    29    31    1
    24    29    32    1
    25    27    28   ar
    26     9    10   ar
    27    10    11   ar
    28    11    12    1
    29    12    13    3
    30    13    14    1
    31    14    15   ar
    32    15    16   ar
    33    16    17   ar
    34    17    18   ar
    35    18    19   ar
    36    19    20   ar
    37    20    21   ar
    38    21    22   ar
    39    11     6   ar
    40    22    14   ar
    41    28    23   ar
    42    22    17   ar
    43    40    34    1
    44     3     4    1
@<TRIPOS>MOLECULE
*****
 40 44 0 0 0
SMALL
GASTEIGER

@<TRIPOS>ATOM
      1 C         139.8134  140.6262  159.0096 C.2     1  UNL1        0.2495
      2 O         140.2638  142.0567  158.9835 O.2     1  UNL1       -0.2698
      3 N         139.6497  139.9152  160.3202 N.am    1  UNL1       -0.2804
      4 H         139.3541  138.9762  160.3373 H       1  UNL1        0.1552
      5 C         138.6663  137.7480  153.8715 C.3     1  UNL1        0.0317
      6 C         138.9531  138.4675  155.1560 C.ar    1  UNL1       -0.0142
      7 C         138.2254  139.7378  155.4827 C.ar    1  UNL1       -0.0035
      8 C         138.5121  140.4574  156.7672 C.ar    1  UNL1        0.0042
      9 C         139.5266  139.9067  157.7251 C.ar    1  UNL1        0.0543
     10 C         140.2543  138.6363  157.3984 C.ar    1  UNL1        0.0124
     11 C         139.9675  137.9168  156.1138 C.ar    1  UNL1        0.0382
     12 C         140.6953  136.6465  155.7871 C.1     1  UNL1       -0.0585
     13 C         141.4229  135.3761  155.4604 C.1     1  UNL1       -0.0388
     14 C         142.1506  134.1058  155.1336 C.ar    1  UNL1        0.1451
     15 C         141.9889  133.2938  153.8829 C.ar    1  UNL1        0.1281
     16 N         142.9062  132.1107  153.9766 N.ar    1  UNL1       -0.2228
     17 C         143.6348  132.1915  155.2853 C.ar    1  UNL1        0.1646
     18 C         144.6631  131.3015  155.9181 C.ar    1  UNL1        0.0405
     19 C         145.2245  131.6447  157.2661 C.ar    1  UNL1        0.0256
     20 C         144.7575  132.8778  157.9812 C.ar    1  UNL1        0.1207
     21 N         143.7292  133.7678  157.3483 N.ar    1  UNL1       -0.1616
     22 N         143.1678  133.4246  156.0004 N.ar    1  UNL1       -0.2030
     23 C         139.9365  140.6347  161.6048 C.ar    1  UNL1        0.0505
     24 C         141.2319  140.3992  162.3233 C.ar    1  UNL1        0.0144
     25 C         141.5187  141.1187  163.6078 C.ar    1  UNL1       -0.0017
     26 C         140.5100  142.0738  164.1739 C.ar    1  UNL1       -0.0022
     27 C         139.2145  142.3093  163.4554 C.ar    1  UNL1        0.0700
     28 C         138.9277  141.5897  162.1708 C.ar    1  UNL1        0.0183
     29 C         138.2057  143.2642  164.0214 C.3     1  UNL1        0.4184
     30 F         137.1969  144.2191  164.5874 F       1  UNL1       -0.1659
     31 F         138.8493  144.3906  163.2682 F       1  UNL1       -0.1659
     32 F         137.5621  142.1379  164.7745 F       1  UNL1       -0.1659
     33 C         140.7967  142.7933  165.4584 C.3     1  UNL1        0.0992
     34 N         140.5006  142.1310  166.7713 N.3     1  UNL1       -0.2665
     35 C         139.9621  140.7313  166.8006 C.3     1  UNL1        0.0899
     36 C         139.6659  140.0691  168.1135 C.3     1  UNL1        0.0897
     37 N         139.9083  140.8065  169.3970 N.3     1  UNL1       -0.2691
     38 C         139.6121  140.1442  170.7100 C.3     1  UNL1        0.0897
     39 C         140.4468  142.2062  169.3677 C.3     1  UNL1        0.0897
     40 C         140.7430  142.8685  168.0548 C.3     1  UNL1        0.0899
@<TRIPOS>BOND
     1     5     6    1
     2     6     7   ar
     3     7     8   ar
     4     8     9   ar
     5     9     1    1
     6     1     2    2
     7     1     3   am
     8     3    23    1
     9    23    24   ar
    10    24    25   ar
    11    25    26   ar
    12    26    33    1
    13    33    34    1
    14    34    35    1
    15    35    36    1
    16    36    37    1
    17    37    38    1
    18    37    39    1
    19    39    40    1
    20    26    27   ar
    21    27    29    1
    22    29    30    1
    23    29    31    1
    24    29    32    1
    25    27    28   ar
    26     9    10   ar
    27    10    11   ar
    28    11    12    1
    29    12    13    3
    30    13    14    1
    31    14    15   ar
    32    15    16   ar
    33    16    17   ar
    34    17    18   ar
    35    18    19   ar
    36    19    20   ar
    37    20    21   ar
    38    21    22   ar
    39    11     6   ar
    40    22    14   ar
    41    28    23   ar
    42    22    17   ar
    43    40    34    1
    44     3     4    1
@<TRIPOS>MOLECULE
*****
 40 44 0 0 0
SMALL
GASTEIGER

@<TRIPOS>ATOM
      1 C         142.6864  138.6499  159.9595 C.2     1  UNL1        0.2495
      2 O         144.1089  138.4903  160.4081 O.2     1  UNL1       -0.2698
      3 N         141.6006  138.8666  160.9714 N.am    1  UNL1       -0.2804
      4 H         140.6670  138.9713  160.6769 H       1  UNL1        0.1552
      5 C         141.3402  138.4213  154.1169 C.3     1  UNL1        0.0317
      6 C         141.6768  138.4784  155.5775 C.ar    1  UNL1       -0.0142
      7 C         141.5368  139.7687  156.3295 C.ar    1  UNL1       -0.0035
      8 C         141.8733  139.8259  157.7901 C.ar    1  UNL1        0.0042
      9 C         142.3499  138.5928  158.4988 C.ar    1  UNL1        0.0543
     10 C         142.4899  137.3025  157.7468 C.ar    1  UNL1        0.0124
     11 C         142.1534  137.2453  156.2862 C.ar    1  UNL1        0.0382
     12 C         142.2934  135.9550  155.5341 C.1     1  UNL1       -0.0585
     13 C         142.4333  134.6647  154.7821 C.1     1  UNL1       -0.0388
     14 C         142.5733  133.3744  154.0301 C.ar    1  UNL1        0.1451
     15 C         141.9259  133.0439  152.7180 C.ar    1  UNL1        0.1281
     16 N         142.3378  131.6533  152.3352 N.ar    1  UNL1       -0.2228
     17 C         143.2399  131.1244  153.4106 C.ar    1  UNL1        0.1646
     18 C         143.9475  129.8116  153.5714 C.ar    1  UNL1        0.0405
     19 C         144.8007  129.5626  154.7797 C.ar    1  UNL1        0.0256
     20 C         144.9462  130.6263  155.8272 C.ar    1  UNL1        0.1207
     21 N         144.2386  131.9391  155.6665 N.ar    1  UNL1       -0.1616
     22 N         143.3854  132.1881  154.4582 N.ar    1  UNL1       -0.2030
     23 C         141.9371  138.9237  162.4320 C.ar    1  UNL1        0.0505
     24 C         141.5806  137.7758  163.3293 C.ar    1  UNL1        0.0144
     25 C         141.9171  137.8329  164.7899 C.ar    1  UNL1       -0.0017
     26 C         142.6102  139.0380  165.3533 C.ar    1  UNL1       -0.0022
     27 C         142.9669  140.1859  164.4561 C.ar    1  UNL1        0.0700
     28 C         142.6303  140.1287  162.9954 C.ar    1  UNL1        0.0183
     29 C         143.6600  141.3910  165.0193 C.3     1  UNL1        0.4184
     30 F         144.3532  142.5960  165.5826 F       1  UNL1       -0.1659
     31 F         142.3298  142.0244  165.3013 F       1  UNL1       -0.1659
     32 F         144.9902  140.7576  164.7374 F       1  UNL1       -0.1659
     33 C         142.9468  139.0951  166.8140 C.3     1  UNL1        0.0992
     34 N         142.1592  139.9834  167.7309 N.3     1  UNL1       -0.2665
     35 C         142.8672  140.9783  168.6021 C.3     1  UNL1        0.0899
     36 C         142.0796  141.8665  169.5189 C.3     1  UNL1        0.0897
     37 N         140.5841  141.7598  169.5646 N.3     1  UNL1       -0.2691
     38 C         139.7965  142.6482  170.4816 C.3     1  UNL1        0.0897
     39 C         139.8761  140.7649  168.6934 C.3     1  UNL1        0.0897
     40 C         140.6637  139.8767  167.7765 C.3     1  UNL1        0.0899
@<TRIPOS>BOND
     1     5     6    1
     2     6     7   ar
     3     7     8   ar
     4     8     9   ar
     5     9     1    1
     6     1     2    2
     7     1     3   am
     8     3    23    1
     9    23    24   ar
    10    24    25   ar
    11    25    26   ar
    12    26    33    1
    13    33    34    1
    14    34    35    1
    15    35    36    1
    16    36    37    1
    17    37    38    1
    18    37    39    1
    19    39    40    1
    20    26    27   ar
    21    27    29    1
    22    29    30    1
    23    29    31    1
    24    29    32    1
    25    27    28   ar
    26     9    10   ar
    27    10    11   ar
    28    11    12    1
    29    12    13    3
    30    13    14    1
    31    14    15   ar
    32    15    16   ar
    33    16    17   ar
    34    17    18   ar
    35    18    19   ar
    36    19    20   ar
    37    20    21   ar
    38    21    22   ar
    39    11     6   ar
    40    22    14   ar
    41    28    23   ar
    42    22    17   ar
    43    40    34    1
    44     3     4    1
@<TRIPOS>MOLECULE
*****
 40 44 0 0 0
SMALL
GASTEIGER

@<TRIPOS>ATOM
      1 C         139.1285  141.5418  158.7394 C.2     1  UNL1        0.2495
      2 O         140.3450  142.4131  158.6339 O.2     1  UNL1       -0.2698
      3 N         138.6112  141.1359  160.0875 N.am    1  UNL1       -0.2804
      4 H         137.8129  140.5640  160.1567 H       1  UNL1        0.1552
      5 C         136.3321  139.6798  153.7681 C.3     1  UNL1        0.0317
      6 C         137.0312  140.1453  155.0109 C.ar    1  UNL1       -0.0142
      7 C         138.5277  140.0884  155.0956 C.ar    1  UNL1       -0.0035
      8 C         139.2268  140.5539  156.3383 C.ar    1  UNL1        0.0042
      9 C         138.4295  141.0763  157.4965 C.ar    1  UNL1        0.0543
     10 C         136.9329  141.1331  157.4118 C.ar    1  UNL1        0.0124
     11 C         136.2338  140.6677  156.1690 C.ar    1  UNL1        0.0382
     12 C         134.7373  140.7245  156.0843 C.1     1  UNL1       -0.0585
     13 C         133.2407  140.7815  155.9996 C.1     1  UNL1       -0.0388
     14 C         131.7442  140.8384  155.9149 C.ar    1  UNL1        0.1451
     15 C         130.9456  141.7272  155.0082 C.ar    1  UNL1        0.1281
     16 N         129.4914  141.4545  155.2550 N.ar    1  UNL1       -0.2228
     17 C         129.3913  140.3971  156.3142 C.ar    1  UNL1        0.1646
     18 C         128.2121  139.7319  156.9600 C.ar    1  UNL1        0.0405
     19 C         128.4254  138.6858  158.0136 C.ar    1  UNL1        0.0256
     20 C         129.8177  138.3049  158.4214 C.ar    1  UNL1        0.1207
     21 N         130.9968  138.9702  157.7757 N.ar    1  UNL1       -0.1616
     22 N         130.7836  140.0163  156.7220 N.ar    1  UNL1       -0.2030
     23 C         139.3103  141.6014  161.3303 C.ar    1  UNL1        0.0505
     24 C         140.6576  141.0460  161.6858 C.ar    1  UNL1        0.0144
     25 C         141.3567  141.5115  162.9286 C.ar    1  UNL1       -0.0017
     26 C         140.7085  142.5324  163.8160 C.ar    1  UNL1       -0.0022
     27 C         139.3612  143.0878  163.4607 C.ar    1  UNL1        0.0700
     28 C         138.6621  142.6223  162.2178 C.ar    1  UNL1        0.0183
     29 C         138.7129  144.1087  164.3480 C.3     1  UNL1        0.4184
     30 F         138.0647  145.1297  165.2354 F       1  UNL1       -0.1659
     31 F         137.9169  143.0252  165.0133 F       1  UNL1       -0.1659
     32 F         139.5088  145.1923  163.6829 F       1  UNL1       -0.1659
     33 C         141.4075  142.9979  165.0589 C.3     1  UNL1        0.0992
     34 N         141.4223  142.1287  166.2813 N.3     1  UNL1       -0.2665
     35 C         140.2456  141.2520  166.5924 C.3     1  UNL1        0.0899
     36 C         140.2604  140.3829  167.8148 C.3     1  UNL1        0.0897
     37 N         141.4518  140.3905  168.7261 N.3     1  UNL1       -0.2691
     38 C         141.4665  139.5213  169.9486 C.3     1  UNL1        0.0897
     39 C         142.6284  141.2672  168.4150 C.3     1  UNL1        0.0897
     40 C         142.6137  142.1364  167.1926 C.3     1  UNL1        0.0899
@<TRIPOS>BOND
     1     5     6    1
     2     6     7   ar
     3     7     8   ar
     4     8     9   ar
     5     9     1    1
     6     1     2    2
     7     1     3   am
     8     3    23    1
     9    23    24   ar
    10    24    25   ar
    11    25    26   ar
    12    26    33    1
    13    33    34    1
    14    34    35    1
    15    35    36    1
    16    36    37    1
    17    37    38    1
    18    37    39    1
    19    39    40    1
    20    26    27   ar
    21    27    29    1
    22    29    30    1
    23    29    31    1
    24    29    32    1
    25    27    28   ar
    26     9    10   ar
    27    10    11   ar
    28    11    12    1
    29    12    13    3
    30    13    14    1
    31    14    15   ar
    32    15    16   ar
    33    16    17   ar
    34    17    18   ar
    35    18    19   ar
    36    19    20   ar
    37    20    21   ar
    38    21    22   ar
    39    11     6   ar
    40    22    14   ar
    41    28    23   ar
    42    22    17   ar
    43    40    34    1
    44     3     4    1
@<TRIPOS>MOLECULE
*****
 40 44 0 0 0
SMALL
GASTEIGER

@<TRIPOS>ATOM
      1 C         139.1260  141.8394  159.7418 C.2     1  UNL1        0.2495
      2 O         138.5215  143.1864  160.0067 O.2     1  UNL1       -0.2698
      3 N         139.8295  141.5751  158.4436 N.am    1  UNL1       -0.2804
      4 H         140.2263  140.6911  158.2698 H       1  UNL1        0.1552
      5 C         138.7304  137.5084  163.8753 C.3     1  UNL1        0.0317
      6 C         138.8293  138.5911  162.8420 C.ar    1  UNL1       -0.0142
      7 C         138.1572  138.4220  161.5117 C.ar    1  UNL1       -0.0035
      8 C         138.2561  139.5046  160.4783 C.ar    1  UNL1        0.0042
      9 C         139.0271  140.7566  160.7751 C.ar    1  UNL1        0.0543
     10 C         139.6992  140.9258  162.1054 C.ar    1  UNL1        0.0124
     11 C         139.6003  139.8431  163.1388 C.ar    1  UNL1        0.0382
     12 C         140.2724  140.0123  164.4691 C.1     1  UNL1       -0.0585
     13 C         140.9445  140.1813  165.7994 C.1     1  UNL1       -0.0388
     14 C         141.6166  140.3505  167.1297 C.ar    1  UNL1        0.1451
     15 C         142.6463  139.4335  167.7203 C.ar    1  UNL1        0.1281
     16 N         143.0431  139.9827  169.0585 N.ar    1  UNL1       -0.2228
     17 C         142.2586  141.2391  169.2951 C.ar    1  UNL1        0.1646
     18 C         142.2332  142.2056  170.4419 C.ar    1  UNL1        0.0405
     19 C         141.3261  143.3994  170.3966 C.ar    1  UNL1        0.0256
     20 C         140.4445  143.6267  169.2046 C.ar    1  UNL1        0.1207
     21 N         140.4700  142.6603  168.0577 N.ar    1  UNL1       -0.1616
     22 N         141.3770  141.4665  168.1030 N.ar    1  UNL1       -0.2030
     23 C         139.9284  142.6579  157.4102 C.ar    1  UNL1        0.0505
     24 C         141.1130  143.5780  157.3989 C.ar    1  UNL1        0.0144
     25 C         141.2119  144.6607  156.3656 C.ar    1  UNL1       -0.0017
     26 C         140.1262  144.8234  155.3434 C.ar    1  UNL1       -0.0022
     27 C         138.9416  143.9033  155.3546 C.ar    1  UNL1        0.0700
     28 C         138.8427  142.8206  156.3880 C.ar    1  UNL1        0.0183
     29 C         137.8559  144.0659  154.3325 C.3     1  UNL1        0.4184
     30 F         136.7700  144.2286  153.3105 F       1  UNL1       -0.1659
     31 F         138.5810  143.1286  153.4130 F       1  UNL1       -0.1659
     32 F         137.1306  145.0033  155.2520 F       1  UNL1       -0.1659
     33 C         140.2251  145.9062  154.3100 C.3     1  UNL1        0.0992
     34 N         139.8054  147.3060  154.6480 N.3     1  UNL1       -0.2665
     35 C         140.1611  148.4379  153.7302 C.3     1  UNL1        0.0899
     36 C         139.7414  149.8377  154.0682 C.3     1  UNL1        0.0897
     37 N         138.9661  150.1057  155.3240 N.3     1  UNL1       -0.2691
     38 C         138.5464  151.5057  155.6620 C.3     1  UNL1        0.0897
     39 C         138.6105  148.9739  156.2419 C.3     1  UNL1        0.0897
     40 C         139.0301  147.5740  155.9039 C.3     1  UNL1        0.0899
@<TRIPOS>BOND
     1     5     6    1
     2     6     7   ar
     3     7     8   ar
     4     8     9   ar
     5     9     1    1
     6     1     2    2
     7     1     3   am
     8     3    23    1
     9    23    24   ar
    10    24    25   ar
    11    25    26   ar
    12    26    33    1
    13    33    34    1
    14    34    35    1
    15    35    36    1
    16    36    37    1
    17    37    38    1
    18    37    39    1
    19    39    40    1
    20    26    27   ar
    21    27    29    1
    22    29    30    1
    23    29    31    1
    24    29    32    1
    25    27    28   ar
    26     9    10   ar
    27    10    11   ar
    28    11    12    1
    29    12    13    3
    30    13    14    1
    31    14    15   ar
    32    15    16   ar
    33    16    17   ar
    34    17    18   ar
    35    18    19   ar
    36    19    20   ar
    37    20    21   ar
    38    21    22   ar
    39    11     6   ar
    40    22    14   ar
    41    28    23   ar
    42    22    17   ar
    43    40    34    1
    44     3     4    1
