@<TRIPOS>MOLECULE
*****
 41 45 0 0 0
SMALL
GASTEIGER

@<TRIPOS>ATOM
      1 O         142.3817  136.3280  155.8041 O.2     1  UNL1       -0.2726
      2 C         142.0062  137.0572  157.0600 C.2     1  UNL1        0.2513
      3 C         140.6652  137.7203  157.1698 C.3     1  UNL1        0.1278
      4 C         140.2896  138.4494  158.4257 C.2     1  UNL1        0.0321
      5 C         141.2551  138.5155  159.5719 C.ar    1  UNL1        0.0245
      6 C         140.8795  139.2446  160.8277 C.ar    1  UNL1       -0.0014
      7 C         141.8449  139.3107  161.9738 C.ar    1  UNL1       -0.0142
      8 C         143.1859  138.6477  161.8640 C.ar    1  UNL1       -0.0023
      9 C         143.5615  137.9185  160.6081 C.ar    1  UNL1        0.0163
     10 C         142.5961  137.8525  159.4621 C.ar    1  UNL1        0.0742
     11 N         142.9716  137.1233  158.2061 N.am    1  UNL1       -0.1789
     12 N         138.9486  139.1125  158.5355 N.pl3   1  UNL1       -0.3368
     13 H         138.2421  138.9054  157.8819 H       1  UNL1        0.1465
     14 C         138.6840  140.0909  159.6412 C.3     1  UNL1        0.0716
     15 C         137.9408  139.6530  160.8684 C.3     1  UNL1        0.0386
     16 C         137.6763  140.6314  161.9741 C.3     1  UNL1        0.0974
     17 N         138.1548  142.0479  161.8526 N.3     1  UNL1       -0.1520
     18 C         138.8979  142.4858  160.6255 C.3     1  UNL1        0.0974
     19 C         139.1625  141.5073  159.5197 C.3     1  UNL1        0.0386
     20 S         137.8902  143.0263  162.9583 S.O2    1  UNL1        0.1302
     21 O         138.5052  144.1205  162.1371 O.2     1  UNL1       -0.1495
     22 O         137.2752  141.9321  163.7794 O.2     1  UNL1       -0.1495
     23 C         137.6256  144.0048  164.0641 C.3     1  UNL1        0.5359
     24 F         138.0248  145.1336  163.1606 F       1  UNL1       -0.1493
     25 F         137.2263  142.8759  164.9675 F       1  UNL1       -0.1493
     26 F         137.3610  144.9833  165.1697 F       1  UNL1       -0.1493
     27 C         141.4694  140.0399  163.2298 C.3     1  UNL1        0.0667
     28 C         142.1162  141.3533  163.5564 C.ar    1  UNL1       -0.0143
     29 C         141.6133  142.6155  162.9208 C.ar    1  UNL1       -0.0028
     30 C         142.2601  143.9289  163.2474 C.ar    1  UNL1        0.0111
     31 C         143.4098  143.9800  164.2096 C.ar    1  UNL1        0.0577
     32 CL        144.0566  145.2934  164.5363 Cl      1  UNL1       -0.0822
     33 C         143.9126  142.7178  164.8452 C.ar    1  UNL1        0.0111
     34 C         143.2658  141.4044  164.5185 C.ar    1  UNL1       -0.0028
     35 C         140.4471  139.4557  164.1590 C.ar    1  UNL1       -0.0143
     36 C         139.8050  140.3178  165.2053 C.ar    1  UNL1       -0.0028
     37 C         138.7827  139.7335  166.1346 C.ar    1  UNL1        0.0111
     38 C         138.4024  138.2873  166.0176 C.ar    1  UNL1        0.0577
     39 CL        137.3801  137.7031  166.9468 Cl      1  UNL1       -0.0822
     40 C         139.0444  137.4252  164.9714 C.ar    1  UNL1        0.0111
     41 C         140.0668  138.0094  164.0421 C.ar    1  UNL1       -0.0028
@<TRIPOS>BOND
     1     1     2    2
     2     2     3    1
     3     3     4    1
     4     4    12    1
     5    12    14    1
     6    14    15    1
     7    15    16    1
     8    16    17    1
     9    17    20    1
    10    20    21    2
    11    20    22    2
    12    20    23    1
    13    23    24    1
    14    23    25    1
    15    23    26    1
    16    17    18    1
    17    18    19    1
    18     4     5    2
    19     5     6   ar
    20     6     7   ar
    21     7    27    1
    22    27    28    1
    23    28    29   ar
    24    29    30   ar
    25    30    31   ar
    26    31    32    1
    27    31    33   ar
    28    33    34   ar
    29    27    35    1
    30    35    36   ar
    31    36    37   ar
    32    37    38   ar
    33    38    39    1
    34    38    40   ar
    35    40    41   ar
    36     7     8   ar
    37     8     9   ar
    38     9    10   ar
    39    10    11    2
    40    11     2    1
    41    19    14    1
    42    10     5   ar
    43    34    28   ar
    44    41    35   ar
    45    12    13    1
@<TRIPOS>MOLECULE
*****
 41 45 0 0 0
SMALL
GASTEIGER

@<TRIPOS>ATOM
      1 O         141.4620  136.9377  155.6158 O.2     1  UNL1       -0.2726
      2 C         141.2260  137.5529  156.9634 C.2     1  UNL1        0.2513
      3 C         139.9485  138.2894  157.2382 C.3     1  UNL1        0.1278
      4 C         139.7125  138.9047  158.5857 C.2     1  UNL1        0.0321
      5 C         140.7540  138.7834  159.6584 C.ar    1  UNL1        0.0245
      6 C         140.5179  139.3987  161.0058 C.ar    1  UNL1       -0.0014
      7 C         141.5594  139.2774  162.0785 C.ar    1  UNL1       -0.0142
      8 C         142.8369  138.5409  161.8037 C.ar    1  UNL1       -0.0023
      9 C         143.0729  137.9257  160.4562 C.ar    1  UNL1        0.0163
     10 C         142.0315  138.0469  159.3836 C.ar    1  UNL1        0.0742
     11 N         142.2675  137.4317  158.0360 N.am    1  UNL1       -0.1789
     12 N         138.4350  139.6412  158.8605 N.pl3   1  UNL1       -0.3368
     13 H         137.6475  139.4910  158.2890 H       1  UNL1        0.1465
     14 C         138.3572  140.6064  160.0060 C.3     1  UNL1        0.0716
     15 C         137.6868  140.2002  161.2849 C.3     1  UNL1        0.0386
     16 C         137.6091  141.1654  162.4304 C.3     1  UNL1        0.0974
     17 N         138.2018  142.5369  162.2971 N.3     1  UNL1       -0.1520
     18 C         138.8721  142.9432  161.0182 C.3     1  UNL1        0.0974
     19 C         138.9499  141.9779  159.8726 C.3     1  UNL1        0.0386
     20 S         138.1240  143.5021  163.4426 S.O2    1  UNL1        0.1302
     21 O         137.7544  142.3782  164.3646 O.2     1  UNL1       -0.1495
     22 O         138.4936  144.6261  162.5206 O.2     1  UNL1       -0.1495
     23 C         138.0463  144.4675  164.5881 C.3     1  UNL1        0.5359
     24 F         139.2056  145.2326  164.0219 F       1  UNL1       -0.1493
     25 F         136.8870  143.7024  165.1543 F       1  UNL1       -0.1493
     26 F         137.9686  145.4328  165.7336 F       1  UNL1       -0.1493
     27 C         141.3234  139.8927  163.4260 C.3     1  UNL1        0.0667
     28 C         140.3060  139.2981  164.3542 C.ar    1  UNL1       -0.0143
     29 C         139.7725  140.1067  165.4995 C.ar    1  UNL1       -0.0028
     30 C         138.7552  139.5121  166.4277 C.ar    1  UNL1        0.0111
     31 C         138.2713  138.1089  166.2105 C.ar    1  UNL1        0.0577
     32 CL        137.2540  137.5143  167.1386 Cl      1  UNL1       -0.0822
     33 C         138.8048  137.3004  165.0652 C.ar    1  UNL1        0.0111
     34 C         139.8222  137.8950  164.1371 C.ar    1  UNL1       -0.0028
     35 C         142.1047  141.1025  163.8454 C.ar    1  UNL1       -0.0143
     36 C         141.6799  142.4659  163.3862 C.ar    1  UNL1       -0.0028
     37 C         142.4612  143.6757  163.8056 C.ar    1  UNL1        0.0111
     38 C         143.6673  143.5222  164.6840 C.ar    1  UNL1        0.0577
     39 CL        144.4486  144.7320  165.1034 Cl      1  UNL1       -0.0822
     40 C         144.0921  142.1589  165.1432 C.ar    1  UNL1        0.0111
     41 C         143.3108  140.9490  164.7239 C.ar    1  UNL1       -0.0028
@<TRIPOS>BOND
     1     1     2    2
     2     2     3    1
     3     3     4    1
     4     4    12    1
     5    12    14    1
     6    14    15    1
     7    15    16    1
     8    16    17    1
     9    17    20    1
    10    20    21    2
    11    20    22    2
    12    20    23    1
    13    23    24    1
    14    23    25    1
    15    23    26    1
    16    17    18    1
    17    18    19    1
    18     4     5    2
    19     5     6   ar
    20     6     7   ar
    21     7    27    1
    22    27    28    1
    23    28    29   ar
    24    29    30   ar
    25    30    31   ar
    26    31    32    1
    27    31    33   ar
    28    33    34   ar
    29    27    35    1
    30    35    36   ar
    31    36    37   ar
    32    37    38   ar
    33    38    39    1
    34    38    40   ar
    35    40    41   ar
    36     7     8   ar
    37     8     9   ar
    38     9    10   ar
    39    10    11    2
    40    11     2    1
    41    19    14    1
    42    10     5   ar
    43    34    28   ar
    44    41    35   ar
    45    12    13    1
@<TRIPOS>MOLECULE
*****
 41 45 0 0 0
SMALL
GASTEIGER

@<TRIPOS>ATOM
      1 O         140.7019  140.6140  172.2649 O.2     1  UNL1       -0.2726
      2 C         140.6968  140.7091  170.7678 C.2     1  UNL1        0.2513
      3 C         139.6188  140.0293  169.9768 C.3     1  UNL1        0.1278
      4 C         139.6138  140.1244  168.4799 C.2     1  UNL1        0.0321
      5 C         140.6867  140.8993  167.7739 C.ar    1  UNL1        0.0245
      6 C         140.6816  140.9944  166.2769 C.ar    1  UNL1       -0.0014
      7 C         141.7545  141.7693  165.5710 C.ar    1  UNL1       -0.0142
      8 C         142.8325  142.4492  166.3621 C.ar    1  UNL1       -0.0023
      9 C         142.8376  142.3541  167.8590 C.ar    1  UNL1        0.0163
     10 C         141.7647  141.5792  168.5649 C.ar    1  UNL1        0.0742
     11 N         141.7697  141.4841  170.0620 N.am    1  UNL1       -0.1789
     12 N         138.5358  139.4445  167.6888 N.pl3   1  UNL1       -0.3368
     13 H         137.7219  139.1235  168.1403 H       1  UNL1        0.1465
     14 C         138.6977  139.2538  166.2099 C.3     1  UNL1        0.0716
     15 C         138.0719  140.2269  165.2551 C.3     1  UNL1        0.0386
     16 C         138.2339  140.0361  163.7762 C.3     1  UNL1        0.0974
     17 N         139.0217  138.8723  163.2519 N.3     1  UNL1       -0.1520
     18 C         139.6475  137.8992  164.2065 C.3     1  UNL1        0.0974
     19 C         139.4855  138.0899  165.6856 C.3     1  UNL1        0.0386
     20 S         139.1836  138.6815  161.7729 S.O2    1  UNL1        0.1302
     21 O         140.1403  137.5537  162.0232 O.2     1  UNL1       -0.1495
     22 O         138.2270  139.8094  161.5227 O.2     1  UNL1       -0.1495
     23 C         139.3456  138.4908  160.2939 C.3     1  UNL1        0.5359
     24 F         140.6018  137.7067  160.5326 F       1  UNL1       -0.1493
     25 F         138.0894  139.2749  160.0552 F       1  UNL1       -0.1493
     26 F         139.5075  138.3001  158.8149 F       1  UNL1       -0.1493
     27 C         141.7494  141.8644  164.0740 C.3     1  UNL1        0.0667
     28 C         141.1561  143.0665  163.4009 C.ar    1  UNL1       -0.0143
     29 C         141.9372  144.3448  163.3238 C.ar    1  UNL1       -0.0028
     30 C         141.3438  145.5468  162.6506 C.ar    1  UNL1        0.0111
     31 C         139.9693  145.4705  162.0547 C.ar    1  UNL1        0.0577
     32 CL        139.3760  146.6725  161.3815 Cl      1  UNL1       -0.0822
     33 C         139.1883  144.1922  162.1318 C.ar    1  UNL1        0.0111
     34 C         139.7817  142.9902  162.8049 C.ar    1  UNL1       -0.0028
     35 C         142.3377  140.7576  163.2502 C.ar    1  UNL1       -0.0143
     36 C         142.4150  140.8927  161.7582 C.ar    1  UNL1       -0.0028
     37 C         143.0033  139.7858  160.9344 C.ar    1  UNL1        0.0111
     38 C         143.5143  138.5438  161.6025 C.ar    1  UNL1        0.0577
     39 CL        144.1026  137.4370  160.7787 Cl      1  UNL1       -0.0822
     40 C         143.4371  138.4087  163.0943 C.ar    1  UNL1        0.0111
     41 C         142.8487  139.5156  163.9182 C.ar    1  UNL1       -0.0028
@<TRIPOS>BOND
     1     1     2    2
     2     2     3    1
     3     3     4    1
     4     4    12    1
     5    12    14    1
     6    14    15    1
     7    15    16    1
     8    16    17    1
     9    17    20    1
    10    20    21    2
    11    20    22    2
    12    20    23    1
    13    23    24    1
    14    23    25    1
    15    23    26    1
    16    17    18    1
    17    18    19    1
    18     4     5    2
    19     5     6   ar
    20     6     7   ar
    21     7    27    1
    22    27    28    1
    23    28    29   ar
    24    29    30   ar
    25    30    31   ar
    26    31    32    1
    27    31    33   ar
    28    33    34   ar
    29    27    35    1
    30    35    36   ar
    31    36    37   ar
    32    37    38   ar
    33    38    39    1
    34    38    40   ar
    35    40    41   ar
    36     7     8   ar
    37     8     9   ar
    38     9    10   ar
    39    10    11    2
    40    11     2    1
    41    19    14    1
    42    10     5   ar
    43    34    28   ar
    44    41    35   ar
    45    12    13    1
@<TRIPOS>MOLECULE
*****
 41 45 0 0 0
SMALL
GASTEIGER

@<TRIPOS>ATOM
      1 O         140.7267  140.6289  172.2208 O.2     1  UNL1       -0.2726
      2 C         140.7031  140.7199  170.7237 C.2     1  UNL1        0.2513
      3 C         139.6137  140.0405  169.9481 C.3     1  UNL1        0.1278
      4 C         139.5901  140.1315  168.4510 C.2     1  UNL1        0.0321
      5 C         140.6560  140.9020  167.7296 C.ar    1  UNL1        0.0245
      6 C         140.6324  140.9930  166.2325 C.ar    1  UNL1       -0.0014
      7 C         141.6982  141.7635  165.5112 C.ar    1  UNL1       -0.0142
      8 C         142.7875  142.4429  166.2868 C.ar    1  UNL1       -0.0023
      9 C         142.8111  142.3519  167.7838 C.ar    1  UNL1        0.0163
     10 C         141.7453  141.5814  168.5052 C.ar    1  UNL1        0.0742
     11 N         141.7689  141.4904  170.0023 N.am    1  UNL1       -0.1789
     12 N         138.5007  139.4521  167.6754 N.pl3   1  UNL1       -0.3368
     13 H         137.6961  139.1258  168.1394 H       1  UNL1        0.1465
     14 C         138.6373  139.2698  166.1928 C.3     1  UNL1        0.0716
     15 C         138.0601  140.2888  165.2555 C.3     1  UNL1        0.0386
     16 C         138.1967  140.1065  163.7729 C.3     1  UNL1        0.0974
     17 N         138.9105  138.9052  163.2276 N.3     1  UNL1       -0.1520
     18 C         139.4877  137.8862  164.1648 C.3     1  UNL1        0.0974
     19 C         139.3511  138.0685  165.6475 C.3     1  UNL1        0.0386
     20 S         139.0471  138.7229  161.7450 S.O2    1  UNL1        0.1302
     21 O         140.0423  137.6238  161.9719 O.2     1  UNL1       -0.1495
     22 O         138.0518  139.8219  161.5182 O.2     1  UNL1       -0.1495
     23 C         139.1836  138.5406  160.2624 C.3     1  UNL1        0.5359
     24 F         140.3638  137.6411  160.4817 F       1  UNL1       -0.1493
     25 F         138.0035  139.4401  160.0430 F       1  UNL1       -0.1493
     26 F         139.3202  138.3583  158.7798 F       1  UNL1       -0.1493
     27 C         141.6746  141.8545  164.0141 C.3     1  UNL1        0.0667
     28 C         142.2252  140.7317  163.1857 C.ar    1  UNL1       -0.0143
     29 C         142.1751  140.8098  161.6885 C.ar    1  UNL1       -0.0028
     30 C         142.7256  139.6871  160.8601 C.ar    1  UNL1        0.0111
     31 C         143.3264  138.4862  161.5289 C.ar    1  UNL1        0.0577
     32 CL        143.8769  137.3634  160.7005 Cl      1  UNL1       -0.0822
     33 C         143.3765  138.4082  163.0260 C.ar    1  UNL1        0.0111
     34 C         142.8259  139.5309  163.8544 C.ar    1  UNL1       -0.0028
     35 C         141.1005  143.0683  163.3454 C.ar    1  UNL1       -0.0143
     36 C         141.9776  143.9454  162.5019 C.ar    1  UNL1       -0.0028
     37 C         141.4035  145.1592  161.8333 C.ar    1  UNL1        0.0111
     38 C         139.9523  145.4959  162.0081 C.ar    1  UNL1        0.0577
     39 CL        139.3781  146.7097  161.3395 Cl      1  UNL1       -0.0822
     40 C         139.0752  144.6189  162.8516 C.ar    1  UNL1        0.0111
     41 C         139.6493  143.4050  163.5203 C.ar    1  UNL1       -0.0028
@<TRIPOS>BOND
     1     1     2    2
     2     2     3    1
     3     3     4    1
     4     4    12    1
     5    12    14    1
     6    14    15    1
     7    15    16    1
     8    16    17    1
     9    17    20    1
    10    20    21    2
    11    20    22    2
    12    20    23    1
    13    23    24    1
    14    23    25    1
    15    23    26    1
    16    17    18    1
    17    18    19    1
    18     4     5    2
    19     5     6   ar
    20     6     7   ar
    21     7    27    1
    22    27    28    1
    23    28    29   ar
    24    29    30   ar
    25    30    31   ar
    26    31    32    1
    27    31    33   ar
    28    33    34   ar
    29    27    35    1
    30    35    36   ar
    31    36    37   ar
    32    37    38   ar
    33    38    39    1
    34    38    40   ar
    35    40    41   ar
    36     7     8   ar
    37     8     9   ar
    38     9    10   ar
    39    10    11    2
    40    11     2    1
    41    19    14    1
    42    10     5   ar
    43    34    28   ar
    44    41    35   ar
    45    12    13    1
@<TRIPOS>MOLECULE
*****
 41 45 0 0 0
SMALL
GASTEIGER

@<TRIPOS>ATOM
      1 O         136.2089  143.6068  155.7341 O.2     1  UNL1       -0.2726
      2 C         137.5102  143.0580  156.2396 C.2     1  UNL1        0.2513
      3 C         137.5733  141.6636  156.7888 C.3     1  UNL1        0.1278
      4 C         138.8745  141.1147  157.2943 C.2     1  UNL1        0.0321
      5 C         140.1127  141.9603  157.2506 C.ar    1  UNL1        0.0245
      6 C         141.4140  141.4115  157.7561 C.ar    1  UNL1       -0.0014
      7 C         142.6521  142.2571  157.7124 C.ar    1  UNL1       -0.0142
      8 C         142.5890  143.6515  157.1632 C.ar    1  UNL1       -0.0023
      9 C         141.2878  144.2004  156.6577 C.ar    1  UNL1        0.0163
     10 C         140.0497  143.3548  156.7014 C.ar    1  UNL1        0.0742
     11 N         138.7483  143.9036  156.1959 N.am    1  UNL1       -0.1789
     12 N         138.9376  139.7203  157.8435 N.pl3   1  UNL1       -0.3368
     13 H         139.0264  138.9540  157.2319 H       1  UNL1        0.1465
     14 C         138.8654  139.4936  159.3245 C.3     1  UNL1        0.0716
     15 C         137.7858  140.1510  160.1321 C.3     1  UNL1        0.0386
     16 C         137.7135  139.9243  161.6131 C.3     1  UNL1        0.0974
     17 N         138.7208  139.0400  162.2865 N.3     1  UNL1       -0.1520
     18 C         139.8004  138.3826  161.4789 C.3     1  UNL1        0.0974
     19 C         139.8727  138.6093  159.9978 C.3     1  UNL1        0.0386
     20 S         138.6486  138.8133  163.7674 S.O2    1  UNL1        0.1302
     21 O         139.2383  137.4459  163.5868 O.2     1  UNL1       -0.1495
     22 O         138.0589  140.1806  163.9481 O.2     1  UNL1       -0.1495
     23 C         138.5763  138.5865  165.2485 C.3     1  UNL1        0.5359
     24 F         137.7866  139.8523  165.4037 F       1  UNL1       -0.1493
     25 F         139.3660  137.3208  165.0933 F       1  UNL1       -0.1493
     26 F         138.5041  138.3598  166.7295 F       1  UNL1       -0.1493
     27 C         143.9534  141.7083  158.2179 C.3     1  UNL1        0.0667
     28 C         145.1813  141.7789  157.3592 C.ar    1  UNL1       -0.0143
     29 C         146.3164  142.6798  157.7464 C.ar    1  UNL1       -0.0028
     30 C         147.5443  142.7505  156.8877 C.ar    1  UNL1        0.0111
     31 C         147.6370  141.9202  155.6419 C.ar    1  UNL1        0.0577
     32 CL        148.8649  141.9908  154.7832 Cl      1  UNL1       -0.0822
     33 C         146.5019  141.0194  155.2547 C.ar    1  UNL1        0.0111
     34 C         145.2740  140.9487  156.1134 C.ar    1  UNL1       -0.0028
     35 C         144.0268  141.0889  159.5820 C.ar    1  UNL1       -0.0143
     36 C         143.7974  139.6161  159.7503 C.ar    1  UNL1       -0.0028
     37 C         143.8708  138.9967  161.1145 C.ar    1  UNL1        0.0111
     38 C         144.1736  139.8500  162.3104 C.ar    1  UNL1        0.0577
     39 CL        144.2470  139.2306  163.6745 Cl      1  UNL1       -0.0822
     40 C         144.4029  141.3227  162.1421 C.ar    1  UNL1        0.0111
     41 C         144.3296  141.9422  160.7779 C.ar    1  UNL1       -0.0028
@<TRIPOS>BOND
     1     1     2    2
     2     2     3    1
     3     3     4    1
     4     4    12    1
     5    12    14    1
     6    14    15    1
     7    15    16    1
     8    16    17    1
     9    17    20    1
    10    20    21    2
    11    20    22    2
    12    20    23    1
    13    23    24    1
    14    23    25    1
    15    23    26    1
    16    17    18    1
    17    18    19    1
    18     4     5    2
    19     5     6   ar
    20     6     7   ar
    21     7    27    1
    22    27    28    1
    23    28    29   ar
    24    29    30   ar
    25    30    31   ar
    26    31    32    1
    27    31    33   ar
    28    33    34   ar
    29    27    35    1
    30    35    36   ar
    31    36    37   ar
    32    37    38   ar
    33    38    39    1
    34    38    40   ar
    35    40    41   ar
    36     7     8   ar
    37     8     9   ar
    38     9    10   ar
    39    10    11    2
    40    11     2    1
    41    19    14    1
    42    10     5   ar
    43    34    28   ar
    44    41    35   ar
    45    12    13    1
@<TRIPOS>MOLECULE
*****
 41 45 0 0 0
SMALL
GASTEIGER

@<TRIPOS>ATOM
      1 O         142.4159  136.3361  155.8342 O.2     1  UNL1       -0.2726
      2 C         142.0201  137.0892  157.0696 C.2     1  UNL1        0.2513
      3 C         140.7249  137.8450  157.1046 C.3     1  UNL1        0.1278
      4 C         140.3291  138.5980  158.3400 C.2     1  UNL1        0.0321
      5 C         141.2285  138.5955  159.5404 C.ar    1  UNL1        0.0245
      6 C         140.8327  139.3486  160.7758 C.ar    1  UNL1       -0.0014
      7 C         141.7321  139.3459  161.9761 C.ar    1  UNL1       -0.0142
      8 C         143.0274  138.5902  161.9412 C.ar    1  UNL1       -0.0023
      9 C         143.4232  137.8371  160.7058 C.ar    1  UNL1        0.0163
     10 C         142.5238  137.8398  159.5054 C.ar    1  UNL1        0.0742
     11 N         142.9196  137.0866  158.2700 N.am    1  UNL1       -0.1789
     12 N         139.0338  139.3538  158.3749 N.pl3   1  UNL1       -0.3368
     13 H         138.2393  138.9497  158.7930 H       1  UNL1        0.1465
     14 C         138.9490  140.7250  157.7729 C.3     1  UNL1        0.0716
     15 C         140.1529  141.6199  157.7730 C.3     1  UNL1        0.0386
     16 C         140.0681  142.9911  157.1709 C.3     1  UNL1        0.0974
     17 N         138.7795  143.4675  156.5688 N.3     1  UNL1       -0.1520
     18 C         137.5757  142.5727  156.5687 C.3     1  UNL1        0.0974
     19 C         137.6604  141.2014  157.1707 C.3     1  UNL1        0.0386
     20 S         138.6947  144.8387  155.9667 S.O2    1  UNL1        0.1302
     21 O         139.8638  145.2762  156.7984 O.2     1  UNL1       -0.1495
     22 O         137.5256  144.4013  155.1350 O.2     1  UNL1       -0.1495
     23 C         138.6099  146.2100  155.3646 C.3     1  UNL1        0.5359
     24 F         137.2794  145.8642  154.7645 F       1  UNL1       -0.1493
     25 F         139.9403  146.5559  155.9648 F       1  UNL1       -0.1493
     26 F         138.5250  147.5812  154.7625 F       1  UNL1       -0.1493
     27 C         141.3364  140.0991  163.2116 C.3     1  UNL1        0.0667
     28 C         140.3283  139.5141  164.1558 C.ar    1  UNL1       -0.0143
     29 C         139.4796  140.4174  165.0008 C.ar    1  UNL1       -0.0028
     30 C         138.4715  139.8325  165.9450 C.ar    1  UNL1        0.0111
     31 C         138.3121  138.3442  166.0443 C.ar    1  UNL1        0.0577
     32 CL        137.3040  137.7593  166.9885 Cl      1  UNL1       -0.0822
     33 C         139.1607  137.4410  165.1993 C.ar    1  UNL1        0.0111
     34 C         140.1688  138.0260  164.2551 C.ar    1  UNL1       -0.0028
     35 C         141.9486  141.4371  163.5027 C.ar    1  UNL1       -0.0143
     36 C         142.7961  141.6238  164.7263 C.ar    1  UNL1       -0.0028
     37 C         143.4084  142.9618  165.0174 C.ar    1  UNL1        0.0111
     38 C         143.1733  144.1131  164.0851 C.ar    1  UNL1        0.0577
     39 CL        143.7856  145.4511  164.3763 Cl      1  UNL1       -0.0822
     40 C         142.3259  143.9264  162.8616 C.ar    1  UNL1        0.0111
     41 C         141.7135  142.5883  162.5704 C.ar    1  UNL1       -0.0028
@<TRIPOS>BOND
     1     1     2    2
     2     2     3    1
     3     3     4    1
     4     4    12    1
     5    12    14    1
     6    14    15    1
     7    15    16    1
     8    16    17    1
     9    17    20    1
    10    20    21    2
    11    20    22    2
    12    20    23    1
    13    23    24    1
    14    23    25    1
    15    23    26    1
    16    17    18    1
    17    18    19    1
    18     4     5    2
    19     5     6   ar
    20     6     7   ar
    21     7    27    1
    22    27    28    1
    23    28    29   ar
    24    29    30   ar
    25    30    31   ar
    26    31    32    1
    27    31    33   ar
    28    33    34   ar
    29    27    35    1
    30    35    36   ar
    31    36    37   ar
    32    37    38   ar
    33    38    39    1
    34    38    40   ar
    35    40    41   ar
    36     7     8   ar
    37     8     9   ar
    38     9    10   ar
    39    10    11    2
    40    11     2    1
    41    19    14    1
    42    10     5   ar
    43    34    28   ar
    44    41    35   ar
    45    12    13    1
@<TRIPOS>MOLECULE
*****
 41 45 0 0 0
SMALL
GASTEIGER

@<TRIPOS>ATOM
      1 O         140.6482  145.9299  159.0387 O.2     1  UNL1       -0.2726
      2 C         140.7306  145.0430  160.2457 C.2     1  UNL1        0.2513
      3 C         141.6139  143.8309  160.2268 C.3     1  UNL1        0.1278
      4 C         141.6964  142.9440  161.4336 C.2     1  UNL1        0.0321
      5 C         140.8955  143.2693  162.6596 C.ar    1  UNL1        0.0245
      6 C         140.9779  142.3824  163.8664 C.ar    1  UNL1       -0.0014
      7 C         140.1770  142.7077  165.0923 C.ar    1  UNL1       -0.0142
      8 C         139.2937  143.9199  165.1112 C.ar    1  UNL1       -0.0023
      9 C         139.2112  144.8067  163.9043 C.ar    1  UNL1        0.0163
     10 C         140.0121  144.4814  162.6785 C.ar    1  UNL1        0.0742
     11 N         139.9297  145.3683  161.4715 N.am    1  UNL1       -0.1789
     12 N         142.5797  141.7318  161.4147 N.pl3   1  UNL1       -0.3368
     13 H         143.2988  141.6363  162.0803 H       1  UNL1        0.1465
     14 C         142.3675  140.6652  160.3816 C.3     1  UNL1        0.0716
     15 C         143.4674  140.3218  159.4212 C.3     1  UNL1        0.0386
     16 C         143.2551  139.2552  158.3881 C.3     1  UNL1        0.0974
     17 N         141.9430  138.5319  158.3154 N.3     1  UNL1       -0.1520
     18 C         140.8432  138.8753  159.2758 C.3     1  UNL1        0.0974
     19 C         141.0554  139.9420  160.3090 C.3     1  UNL1        0.0386
     20 S         141.7308  137.4653  157.2824 S.O2    1  UNL1        0.1302
     21 O         143.2156  137.3255  157.1217 O.2     1  UNL1       -0.1495
     22 O         140.2460  137.6052  157.4430 O.2     1  UNL1       -0.1495
     23 C         141.5185  136.3987  156.2493 C.3     1  UNL1        0.5359
     24 F         142.9403  135.9518  156.4186 F       1  UNL1       -0.1493
     25 F         140.0967  136.8456  156.0800 F       1  UNL1       -0.1493
     26 F         141.3062  135.3321  155.2162 F       1  UNL1       -0.1493
     27 C         140.2595  141.8208  166.2992 C.3     1  UNL1        0.0667
     28 C         141.0427  142.2602  167.5007 C.ar    1  UNL1       -0.0143
     29 C         142.5065  141.9473  167.5973 C.ar    1  UNL1       -0.0028
     30 C         143.2897  142.3867  168.7987 C.ar    1  UNL1        0.0111
     31 C         142.6091  143.1390  169.9037 C.ar    1  UNL1        0.0577
     32 CL        143.3923  143.5784  171.1051 Cl      1  UNL1       -0.0822
     33 C         141.1453  143.4519  169.8071 C.ar    1  UNL1        0.0111
     34 C         140.3621  143.0125  168.6056 C.ar    1  UNL1       -0.0028
     35 C         139.5587  140.4946  166.3047 C.ar    1  UNL1       -0.0143
     36 C         139.6132  139.6125  165.0926 C.ar    1  UNL1       -0.0028
     37 C         138.9124  138.2863  165.0981 C.ar    1  UNL1        0.0111
     38 C         138.1572  137.8421  166.3156 C.ar    1  UNL1        0.0577
     39 CL        137.4565  136.5159  166.3210 Cl      1  UNL1       -0.0822
     40 C         138.1028  138.7241  167.5276 C.ar    1  UNL1        0.0111
     41 C         138.8035  140.0504  167.5222 C.ar    1  UNL1       -0.0028
@<TRIPOS>BOND
     1     1     2    2
     2     2     3    1
     3     3     4    1
     4     4    12    1
     5    12    14    1
     6    14    15    1
     7    15    16    1
     8    16    17    1
     9    17    20    1
    10    20    21    2
    11    20    22    2
    12    20    23    1
    13    23    24    1
    14    23    25    1
    15    23    26    1
    16    17    18    1
    17    18    19    1
    18     4     5    2
    19     5     6   ar
    20     6     7   ar
    21     7    27    1
    22    27    28    1
    23    28    29   ar
    24    29    30   ar
    25    30    31   ar
    26    31    32    1
    27    31    33   ar
    28    33    34   ar
    29    27    35    1
    30    35    36   ar
    31    36    37   ar
    32    37    38   ar
    33    38    39    1
    34    38    40   ar
    35    40    41   ar
    36     7     8   ar
    37     8     9   ar
    38     9    10   ar
    39    10    11    2
    40    11     2    1
    41    19    14    1
    42    10     5   ar
    43    34    28   ar
    44    41    35   ar
    45    12    13    1
@<TRIPOS>MOLECULE
*****
 41 45 0 0 0
SMALL
GASTEIGER

@<TRIPOS>ATOM
      1 O         139.9257  146.4122  159.3993 O.2     1  UNL1       -0.2726
      2 C         140.1230  145.4749  160.5538 C.2     1  UNL1        0.2513
      3 C         141.1512  144.3862  160.4687 C.3     1  UNL1        0.1278
      4 C         141.3485  143.4490  161.6231 C.2     1  UNL1        0.0321
      5 C         140.5174  143.6005  162.8627 C.ar    1  UNL1        0.0245
      6 C         140.7147  142.6633  164.0171 C.ar    1  UNL1       -0.0014
      7 C         139.8836  142.8148  165.2566 C.ar    1  UNL1       -0.0142
      8 C         138.8553  143.9036  165.3417 C.ar    1  UNL1       -0.0023
      9 C         138.6581  144.8408  164.1873 C.ar    1  UNL1        0.0163
     10 C         139.4891  144.6892  162.9478 C.ar    1  UNL1        0.0742
     11 N         139.2919  145.6265  161.7933 N.am    1  UNL1       -0.1789
     12 N         142.3768  142.3602  161.5380 N.pl3   1  UNL1       -0.3368
     13 H         143.1647  142.3801  162.1279 H       1  UNL1        0.1465
     14 C         142.2045  141.2411  160.5543 C.3     1  UNL1        0.0716
     15 C         142.7695  141.3654  159.1703 C.3     1  UNL1        0.0386
     16 C         142.5973  140.2463  158.1865 C.3     1  UNL1        0.0974
     17 N         141.8600  139.0028  158.5866 N.3     1  UNL1       -0.1520
     18 C         141.2950  138.8784  159.9705 C.3     1  UNL1        0.0974
     19 C         141.4672  139.9976  160.9544 C.3     1  UNL1        0.0386
     20 S         141.6877  137.8837  157.6028 S.O2    1  UNL1        0.1302
     21 O         140.2048  138.1092  157.6060 O.2     1  UNL1       -0.1495
     22 O         143.1706  137.6583  157.5996 O.2     1  UNL1       -0.1495
     23 C         141.5155  136.7645  156.6190 C.3     1  UNL1        0.5359
     24 F         143.0053  136.6540  156.4840 F       1  UNL1       -0.1493
     25 F         140.0257  136.8751  156.7540 F       1  UNL1       -0.1493
     26 F         141.3433  135.6454  155.6352 F       1  UNL1       -0.1493
     27 C         140.0809  141.8776  166.4111 C.3     1  UNL1        0.0667
     28 C         139.4266  140.5278  166.4015 C.ar    1  UNL1       -0.0143
     29 C         138.7249  140.0258  167.6287 C.ar    1  UNL1       -0.0028
     30 C         138.0706  138.6761  167.6191 C.ar    1  UNL1        0.0111
     31 C         138.1179  137.8283  166.3825 C.ar    1  UNL1        0.0577
     32 CL        137.4636  136.4786  166.3730 Cl      1  UNL1       -0.0822
     33 C         138.8196  138.3303  165.1555 C.ar    1  UNL1        0.0111
     34 C         139.4739  139.6801  165.1650 C.ar    1  UNL1       -0.0028
     35 C         140.9323  142.2901  167.5750 C.ar    1  UNL1       -0.0143
     36 C         140.3297  143.0693  168.7063 C.ar    1  UNL1       -0.0028
     37 C         141.1812  143.4818  169.8702 C.ar    1  UNL1        0.0111
     38 C         142.6353  143.1152  169.9029 C.ar    1  UNL1        0.0577
     39 CL        143.4868  143.5277  171.0668 Cl      1  UNL1       -0.0822
     40 C         143.2380  142.3360  168.7717 C.ar    1  UNL1        0.0111
     41 C         142.3865  141.9235  167.6077 C.ar    1  UNL1       -0.0028
@<TRIPOS>BOND
     1     1     2    2
     2     2     3    1
     3     3     4    1
     4     4    12    1
     5    12    14    1
     6    14    15    1
     7    15    16    1
     8    16    17    1
     9    17    20    1
    10    20    21    2
    11    20    22    2
    12    20    23    1
    13    23    24    1
    14    23    25    1
    15    23    26    1
    16    17    18    1
    17    18    19    1
    18     4     5    2
    19     5     6   ar
    20     6     7   ar
    21     7    27    1
    22    27    28    1
    23    28    29   ar
    24    29    30   ar
    25    30    31   ar
    26    31    32    1
    27    31    33   ar
    28    33    34   ar
    29    27    35    1
    30    35    36   ar
    31    36    37   ar
    32    37    38   ar
    33    38    39    1
    34    38    40   ar
    35    40    41   ar
    36     7     8   ar
    37     8     9   ar
    38     9    10   ar
    39    10    11    2
    40    11     2    1
    41    19    14    1
    42    10     5   ar
    43    34    28   ar
    44    41    35   ar
    45    12    13    1
@<TRIPOS>MOLECULE
*****
 41 45 0 0 0
SMALL
GASTEIGER

@<TRIPOS>ATOM
      1 O         142.2851  136.6465  155.7523 O.2     1  UNL1       -0.2726
      2 C         141.9334  137.3622  157.0229 C.2     1  UNL1        0.2513
      3 C         140.6811  138.1842  157.0986 C.3     1  UNL1        0.1278
      4 C         140.3293  138.8999  158.3690 C.2     1  UNL1        0.0321
      5 C         141.2300  138.7935  159.5638 C.ar    1  UNL1        0.0245
      6 C         140.8783  139.5092  160.8343 C.ar    1  UNL1       -0.0014
      7 C         141.7790  139.4028  162.0290 C.ar    1  UNL1       -0.0142
      8 C         143.0314  138.5807  161.9533 C.ar    1  UNL1       -0.0023
      9 C         143.3831  137.8651  160.6829 C.ar    1  UNL1        0.0163
     10 C         142.4824  137.9715  159.4881 C.ar    1  UNL1        0.0742
     11 N         142.8341  137.2558  158.2176 N.am    1  UNL1       -0.1789
     12 N         139.0769  139.7220  158.4447 N.pl3   1  UNL1       -0.3368
     13 H         138.2800  139.3642  158.8988 H       1  UNL1        0.1465
     14 C         139.0388  141.0890  157.8286 C.3     1  UNL1        0.0716
     15 C         138.4399  141.2816  156.4668 C.3     1  UNL1        0.0386
     16 C         138.4018  142.6487  155.8508 C.3     1  UNL1        0.0974
     17 N         138.9624  143.8233  156.5964 N.3     1  UNL1       -0.1520
     18 C         139.5612  143.6308  157.9581 C.3     1  UNL1        0.0974
     19 C         139.5994  142.2636  158.5743 C.3     1  UNL1        0.0386
     20 S         138.9242  145.1903  155.9804 S.O2    1  UNL1        0.1302
     21 O         137.7946  144.7588  155.0928 O.2     1  UNL1       -0.1495
     22 O         140.0538  145.6219  156.8679 O.2     1  UNL1       -0.1495
     23 C         138.8861  146.5575  155.3643 C.3     1  UNL1        0.5359
     24 F         137.5679  146.2332  154.7263 F       1  UNL1       -0.1493
     25 F         140.2043  146.8818  156.0023 F       1  UNL1       -0.1493
     26 F         138.8479  147.9246  154.7482 F       1  UNL1       -0.1493
     27 C         141.4273  140.1185  163.2995 C.3     1  UNL1        0.0667
     28 C         142.0954  141.4182  163.6378 C.ar    1  UNL1       -0.0143
     29 C         141.5675  142.7027  163.0710 C.ar    1  UNL1       -0.0028
     30 C         142.2357  144.0024  163.4093 C.ar    1  UNL1        0.0111
     31 C         143.4318  144.0175  164.3145 C.ar    1  UNL1        0.0577
     32 CL        144.0999  145.3171  164.6528 Cl      1  UNL1       -0.0822
     33 C         143.9596  142.7329  164.8813 C.ar    1  UNL1        0.0111
     34 C         143.2914  141.4333  164.5430 C.ar    1  UNL1       -0.0028
     35 C         140.4075  139.5345  164.2317 C.ar    1  UNL1       -0.0143
     36 C         140.0249  138.0888  164.1144 C.ar    1  UNL1       -0.0028
     37 C         139.0051  137.5049  165.0465 C.ar    1  UNL1        0.0111
     38 C         138.3678  138.3666  166.0959 C.ar    1  UNL1        0.0577
     39 CL        137.3479  137.7826  167.0281 Cl      1  UNL1       -0.0822
     40 C         138.7503  139.8122  166.2133 C.ar    1  UNL1        0.0111
     41 C         139.7701  140.3962  165.2811 C.ar    1  UNL1       -0.0028
@<TRIPOS>BOND
     1     1     2    2
     2     2     3    1
     3     3     4    1
     4     4    12    1
     5    12    14    1
     6    14    15    1
     7    15    16    1
     8    16    17    1
     9    17    20    1
    10    20    21    2
    11    20    22    2
    12    20    23    1
    13    23    24    1
    14    23    25    1
    15    23    26    1
    16    17    18    1
    17    18    19    1
    18     4     5    2
    19     5     6   ar
    20     6     7   ar
    21     7    27    1
    22    27    28    1
    23    28    29   ar
    24    29    30   ar
    25    30    31   ar
    26    31    32    1
    27    31    33   ar
    28    33    34   ar
    29    27    35    1
    30    35    36   ar
    31    36    37   ar
    32    37    38   ar
    33    38    39    1
    34    38    40   ar
    35    40    41   ar
    36     7     8   ar
    37     8     9   ar
    38     9    10   ar
    39    10    11    2
    40    11     2    1
    41    19    14    1
    42    10     5   ar
    43    34    28   ar
    44    41    35   ar
    45    12    13    1
