@<TRIPOS>MOLECULE
*****
 38 41 0 0 0
SMALL
GASTEIGER

@<TRIPOS>ATOM
      1 C         139.5630  140.7906  166.3148 C.3     1  UNL1        0.0397
      2 C         139.5925  142.1543  165.6907 C.3     1  UNL1        0.0765
      3 N         138.4779  142.2302  164.6897 N.3     1  UNL1       -0.2721
      4 C         137.7595  140.9135  164.6952 C.3     1  UNL1        0.0725
      5 C         138.4301  140.0238  165.6996 C.3     1  UNL1        0.0231
      6 C         142.3787  139.2677  169.4775 C.ar    1  UNL1        0.1387
      7 C         142.8094  139.2969  168.0410 C.ar    1  UNL1        0.0366
      8 C         141.8708  139.8046  166.9868 C.ar    1  UNL1       -0.0011
      9 C         140.5016  140.2830  167.3690 C.ar    1  UNL1       -0.0209
     10 C         140.0709  140.2538  168.8055 C.ar    1  UNL1       -0.0011
     11 C         141.0094  139.7461  169.8598 C.ar    1  UNL1        0.0366
     12 C         143.6095  137.2922  170.6318 C.3     1  UNL1        0.2525
     13 O         143.3172  138.7600  170.5317 O.3     1  UNL1       -0.4714
     14 C         138.1409  143.4149  163.8336 C.3     1  UNL1        0.0768
     15 C         138.4799  143.4051  162.3725 C.3     1  UNL1        0.0438
     16 C         139.8663  143.0456  161.9267 C.ar    1  UNL1       -0.0176
     17 C         140.1151  141.7410  161.2291 C.ar    1  UNL1       -0.0009
     18 C         141.5015  141.3815  160.7833 C.ar    1  UNL1        0.0397
     19 C         142.6390  142.3264  161.0351 C.ar    1  UNL1        0.1724
     20 C         142.3901  143.6308  161.7326 C.ar    1  UNL1        0.1721
     21 C         141.0037  143.9904  162.1785 C.ar    1  UNL1        0.0358
     22 O         144.0253  141.9669  160.5893 O.3     1  UNL1       -0.4684
     23 C         144.5374  142.4534  159.2660 C.3     1  UNL1        0.2526
     24 O         143.5276  144.5757  161.9844 O.3     1  UNL1       -0.4684
     25 C         143.8416  145.0154  163.3836 C.3     1  UNL1        0.2526
     26 C         138.0369  138.6146  166.0306 C.3     1  UNL1        0.0230
     27 C         138.7120  137.4660  165.3416 C.3     1  UNL1        0.0898
     28 N         140.0726  137.6488  164.7372 N.am    1  UNL1       -0.3009
     29 C         140.2062  138.0952  163.3114 C.2     1  UNL1        0.2459
     30 O         138.9792  138.3589  162.4899 O.2     1  UNL1       -0.2701
     31 H         140.8780  137.4757  165.2763 H       1  UNL1        0.1497
     32 C         141.5668  138.2780  162.7070 C.ar    1  UNL1        0.0542
     33 C         141.8576  137.7398  161.3374 C.ar    1  UNL1        0.0046
     34 C         143.2182  137.9225  160.7329 C.ar    1  UNL1        0.0010
     35 C         144.2881  138.6435  161.4982 C.ar    1  UNL1        0.0114
     36 C         143.9974  139.1816  162.8679 C.ar    1  UNL1        0.0578
     37 CL        145.0673  139.9025  163.6331 Cl      1  UNL1       -0.0822
     38 C         142.6367  138.9989  163.4722 C.ar    1  UNL1        0.0159
@<TRIPOS>BOND
     1    12    13    1
     2    13     6    1
     3     6     7   ar
     4     7     8   ar
     5     8     9   ar
     6     1     9    1
     7     1     2    1
     8     2     3    1
     9     3    14    1
    10    14    15    1
    11    15    16    1
    12    16    17   ar
    13    17    18   ar
    14    18    19   ar
    15    19    22    1
    16    22    23    1
    17    19    20   ar
    18    20    24    1
    19    24    25    1
    20    20    21   ar
    21     3     4    1
    22     4     5    1
    23     5    26    1
    24    26    27    1
    25    27    28    1
    26    28    29   am
    27    29    30    2
    28    29    32    1
    29    32    33   ar
    30    33    34   ar
    31    34    35   ar
    32    35    36   ar
    33    36    37    1
    34    36    38   ar
    35     9    10   ar
    36    10    11   ar
    37    11     6   ar
    38     5     1    1
    39    38    32   ar
    40    21    16   ar
    41    28    31    1
@<TRIPOS>MOLECULE
*****
 38 41 0 0 0
SMALL
GASTEIGER

@<TRIPOS>ATOM
      1 C         138.8427  139.6752  164.3562 C.3     1  UNL1        0.0397
      2 C         138.1617  140.4543  163.2701 C.3     1  UNL1        0.0765
      3 N         137.9594  139.5383  162.0996 N.3     1  UNL1       -0.2721
      4 C         138.5153  138.1931  162.4623 C.3     1  UNL1        0.0725
      5 C         139.0612  138.2778  163.8568 C.3     1  UNL1        0.0231
      6 C         140.0228  141.2535  168.4017 C.ar    1  UNL1        0.1387
      7 C         140.3776  142.0227  167.1639 C.ar    1  UNL1        0.0366
      8 C         139.9842  141.4967  165.8154 C.ar    1  UNL1       -0.0011
      9 C         139.2360  140.2013  165.7047 C.ar    1  UNL1       -0.0209
     10 C         138.8812  139.4321  166.9425 C.ar    1  UNL1       -0.0011
     11 C         139.2746  139.9581  168.2910 C.ar    1  UNL1        0.0366
     12 C         140.6813  140.8274  170.8786 C.3     1  UNL1        0.2525
     13 O         140.4161  141.7795  169.7502 O.3     1  UNL1       -0.4714
     14 C         137.3144  139.9034  160.7955 C.3     1  UNL1        0.0768
     15 C         138.1351  140.5121  159.6975 C.3     1  UNL1        0.0438
     16 C         139.2424  141.4677  160.0303 C.ar    1  UNL1       -0.0176
     17 C         140.6155  140.9470  160.3368 C.ar    1  UNL1       -0.0009
     18 C         141.7228  141.9026  160.6697 C.ar    1  UNL1        0.0397
     19 C         141.4572  143.3786  160.6961 C.ar    1  UNL1        0.1724
     20 C         140.0842  143.8992  160.3896 C.ar    1  UNL1        0.1721
     21 C         138.9768  142.9436  160.0567 C.ar    1  UNL1        0.0358
     22 O         142.5645  144.3342  161.0290 O.3     1  UNL1       -0.4684
     23 C         142.9466  144.5700  162.4602 C.3     1  UNL1        0.2526
     24 O         139.8185  145.3753  160.4160 O.3     1  UNL1       -0.4684
     25 C         139.6486  146.0834  161.7274 C.3     1  UNL1        0.2526
     26 C         139.7114  137.1610  164.6184 C.3     1  UNL1        0.0230
     27 C         141.2031  137.0059  164.5946 C.3     1  UNL1        0.0898
     28 N         142.0849  138.2065  164.7700 N.am    1  UNL1       -0.3009
     29 C         142.6653  138.8927  163.5690 C.2     1  UNL1        0.2459
     30 O         142.3638  138.3783  162.1926 O.2     1  UNL1       -0.2701
     31 H         142.2829  138.5442  165.6733 H       1  UNL1        0.1497
     32 C         143.5471  140.0934  163.7443 C.ar    1  UNL1        0.0542
     33 C         144.6348  140.3766  162.7510 C.ar    1  UNL1        0.0046
     34 C         145.5167  141.5772  162.9263 C.ar    1  UNL1        0.0010
     35 C         145.3109  142.4947  164.0950 C.ar    1  UNL1        0.0114
     36 C         144.2232  142.2115  165.0884 C.ar    1  UNL1        0.0578
     37 CL        144.0173  143.1290  166.2571 Cl      1  UNL1       -0.0822
     38 C         143.3413  141.0109  164.9130 C.ar    1  UNL1        0.0159
@<TRIPOS>BOND
     1    12    13    1
     2    13     6    1
     3     6     7   ar
     4     7     8   ar
     5     8     9   ar
     6     1     9    1
     7     1     2    1
     8     2     3    1
     9     3    14    1
    10    14    15    1
    11    15    16    1
    12    16    17   ar
    13    17    18   ar
    14    18    19   ar
    15    19    22    1
    16    22    23    1
    17    19    20   ar
    18    20    24    1
    19    24    25    1
    20    20    21   ar
    21     3     4    1
    22     4     5    1
    23     5    26    1
    24    26    27    1
    25    27    28    1
    26    28    29   am
    27    29    30    2
    28    29    32    1
    29    32    33   ar
    30    33    34   ar
    31    34    35   ar
    32    35    36   ar
    33    36    37    1
    34    36    38   ar
    35     9    10   ar
    36    10    11   ar
    37    11     6   ar
    38     5     1    1
    39    38    32   ar
    40    21    16   ar
    41    28    31    1
@<TRIPOS>MOLECULE
*****
 38 41 0 0 0
SMALL
GASTEIGER

@<TRIPOS>ATOM
      1 C         140.9330  143.3388  165.4324 C.3     1  UNL1        0.0397
      2 C         142.2533  143.3150  164.7210 C.3     1  UNL1        0.0765
      3 N         142.2334  144.3859  163.6708 N.3     1  UNL1       -0.2721
      4 C         140.9008  145.0715  163.7332 C.3     1  UNL1        0.0725
      5 C         140.0971  144.4244  164.8220 C.3     1  UNL1        0.0231
      6 C         139.6968  140.6291  168.8058 C.ar    1  UNL1        0.1387
      7 C         139.5942  140.1546  167.3866 C.ar    1  UNL1        0.0366
      8 C         140.0063  141.0578  166.2621 C.ar    1  UNL1       -0.0011
      9 C         140.5209  142.4356  166.5569 C.ar    1  UNL1       -0.0209
     10 C         140.6234  142.9101  167.9761 C.ar    1  UNL1       -0.0011
     11 C         140.2113  142.0069  169.1006 C.ar    1  UNL1        0.0366
     12 C         140.0699  139.7132  171.2082 C.3     1  UNL1        0.2525
     13 O         139.2847  139.7259  169.9302 O.3     1  UNL1       -0.4714
     14 C         143.3501  144.7135  162.7245 C.3     1  UNL1        0.0768
     15 C         144.4986  143.7625  162.5617 C.3     1  UNL1        0.0438
     16 C         144.3081  142.4780  161.8108 C.ar    1  UNL1       -0.0176
     17 C         144.3472  141.1689  162.5422 C.ar    1  UNL1       -0.0009
     18 C         144.1567  139.8844  161.7913 C.ar    1  UNL1        0.0397
     19 C         143.9270  139.9090  160.3091 C.ar    1  UNL1        0.1724
     20 C         143.8879  141.2181  159.5779 C.ar    1  UNL1        0.1721
     21 C         144.0784  142.5027  160.3288 C.ar    1  UNL1        0.0358
     22 O         143.7365  138.6246  159.5583 O.3     1  UNL1       -0.4684
     23 C         142.9579  137.5021  160.1778 C.3     1  UNL1        0.2526
     24 O         143.6582  141.2427  158.0958 O.3     1  UNL1       -0.4684
     25 C         144.8097  141.0457  157.1550 C.3     1  UNL1        0.2526
     26 C         138.7023  144.7974  165.2288 C.3     1  UNL1        0.0230
     27 C         137.5321  144.0363  164.6801 C.3     1  UNL1        0.0898
     28 N         137.7228  142.6450  164.1529 N.am    1  UNL1       -0.3009
     29 C         137.9565  142.4235  162.6879 C.2     1  UNL1        0.2459
     30 O         137.9996  143.5933  161.7500 O.2     1  UNL1       -0.2701
     31 H         137.6945  141.8772  164.7685 H       1  UNL1        0.1497
     32 C         138.1472  141.0322  162.1608 C.ar    1  UNL1        0.0542
     33 C         138.0931  140.7758  160.6838 C.ar    1  UNL1        0.0046
     34 C         138.2838  139.3845  160.1566 C.ar    1  UNL1        0.0010
     35 C         138.5285  138.2496  161.1063 C.ar    1  UNL1        0.0114
     36 C         138.5825  138.5060  162.5834 C.ar    1  UNL1        0.0578
     37 CL        138.8272  137.3710  163.5331 Cl      1  UNL1       -0.0822
     38 C         138.3919  139.8973  163.1105 C.ar    1  UNL1        0.0159
@<TRIPOS>BOND
     1    12    13    1
     2    13     6    1
     3     6     7   ar
     4     7     8   ar
     5     8     9   ar
     6     1     9    1
     7     1     2    1
     8     2     3    1
     9     3    14    1
    10    14    15    1
    11    15    16    1
    12    16    17   ar
    13    17    18   ar
    14    18    19   ar
    15    19    22    1
    16    22    23    1
    17    19    20   ar
    18    20    24    1
    19    24    25    1
    20    20    21   ar
    21     3     4    1
    22     4     5    1
    23     5    26    1
    24    26    27    1
    25    27    28    1
    26    28    29   am
    27    29    30    2
    28    29    32    1
    29    32    33   ar
    30    33    34   ar
    31    34    35   ar
    32    35    36   ar
    33    36    37    1
    34    36    38   ar
    35     9    10   ar
    36    10    11   ar
    37    11     6   ar
    38     5     1    1
    39    38    32   ar
    40    21    16   ar
    41    28    31    1
@<TRIPOS>MOLECULE
*****
 38 41 0 0 0
SMALL
GASTEIGER

@<TRIPOS>ATOM
      1 C         142.6381  139.1713  164.6832 C.3     1  UNL1        0.0397
      2 C         143.6429  139.2797  163.5748 C.3     1  UNL1        0.0765
      3 N         143.1988  138.3831  162.4572 N.3     1  UNL1       -0.2721
      4 C         141.9196  137.7206  162.8749 C.3     1  UNL1        0.0725
      5 C         141.5731  138.2077  164.2507 C.3     1  UNL1        0.0231
      6 C         142.7920  141.3536  168.6156 C.ar    1  UNL1        0.1387
      7 C         142.9298  142.1140  167.3300 C.ar    1  UNL1        0.0366
      8 C         142.8785  141.3865  166.0192 C.ar    1  UNL1       -0.0011
      9 C         142.6894  139.8988  165.9940 C.ar    1  UNL1       -0.0209
     10 C         142.5517  139.1384  167.2796 C.ar    1  UNL1       -0.0011
     11 C         142.6030  139.8658  168.5904 C.ar    1  UNL1        0.0366
     12 C         141.8932  141.7118  171.0268 C.3     1  UNL1        0.2525
     13 O         142.8433  142.0811  169.9264 O.3     1  UNL1       -0.4714
     14 C         143.9093  138.1841  161.1512 C.3     1  UNL1        0.0768
     15 C         143.4708  138.9451  159.9353 C.3     1  UNL1        0.0438
     16 C         143.0969  140.3931  160.0512 C.ar    1  UNL1       -0.0176
     17 C         144.1210  141.4559  159.7831 C.ar    1  UNL1       -0.0009
     18 C         143.7471  142.9039  159.8990 C.ar    1  UNL1        0.0397
     19 C         142.3491  143.2892  160.2831 C.ar    1  UNL1        0.1724
     20 C         141.3252  142.2264  160.5512 C.ar    1  UNL1        0.1721
     21 C         141.6990  140.7783  160.4353 C.ar    1  UNL1        0.0358
     22 O         141.9752  144.7372  160.3991 O.3     1  UNL1       -0.4684
     23 C         141.1860  145.3976  159.3078 C.3     1  UNL1        0.2526
     24 O         139.9272  142.6116  160.9353 O.3     1  UNL1       -0.4684
     25 C         138.8126  142.4791  159.9403 C.3     1  UNL1        0.2526
     26 C         140.3722  137.8024  165.0530 C.3     1  UNL1        0.0230
     27 C         139.0693  138.5224  164.8690 C.3     1  UNL1        0.0898
     28 N         139.0461  139.8801  164.2318 N.am    1  UNL1       -0.3009
     29 C         139.2351  141.1071  165.0737 C.2     1  UNL1        0.2459
     30 O         139.4473  140.9764  166.5528 O.2     1  UNL1       -0.2701
     31 H         138.9068  139.9659  163.2610 H       1  UNL1        0.1497
     32 C         139.2119  142.4648  164.4365 C.ar    1  UNL1        0.0542
     33 C         137.9388  142.9945  163.8461 C.ar    1  UNL1        0.0046
     34 C         137.9155  144.3523  163.2089 C.ar    1  UNL1        0.0010
     35 C         139.1653  145.1803  163.1621 C.ar    1  UNL1        0.0114
     36 C         140.4385  144.6506  163.7526 C.ar    1  UNL1        0.0578
     37 CL        141.6883  145.4786  163.7059 Cl      1  UNL1       -0.0822
     38 C         140.4617  143.2928  164.3898 C.ar    1  UNL1        0.0159
@<TRIPOS>BOND
     1    12    13    1
     2    13     6    1
     3     6     7   ar
     4     7     8   ar
     5     8     9   ar
     6     1     9    1
     7     1     2    1
     8     2     3    1
     9     3    14    1
    10    14    15    1
    11    15    16    1
    12    16    17   ar
    13    17    18   ar
    14    18    19   ar
    15    19    22    1
    16    22    23    1
    17    19    20   ar
    18    20    24    1
    19    24    25    1
    20    20    21   ar
    21     3     4    1
    22     4     5    1
    23     5    26    1
    24    26    27    1
    25    27    28    1
    26    28    29   am
    27    29    30    2
    28    29    32    1
    29    32    33   ar
    30    33    34   ar
    31    34    35   ar
    32    35    36   ar
    33    36    37    1
    34    36    38   ar
    35     9    10   ar
    36    10    11   ar
    37    11     6   ar
    38     5     1    1
    39    38    32   ar
    40    21    16   ar
    41    28    31    1
@<TRIPOS>MOLECULE
*****
 38 41 0 0 0
SMALL
GASTEIGER

@<TRIPOS>ATOM
      1 C         141.9730  138.9422  164.7640 C.3     1  UNL1        0.0397
      2 C         142.9016  139.0802  163.5941 C.3     1  UNL1        0.0765
      3 N         142.4817  138.0888  162.5496 N.3     1  UNL1       -0.2721
      4 C         141.2937  137.3381  163.0740 C.3     1  UNL1        0.0725
      5 C         140.9794  137.8655  164.4426 C.3     1  UNL1        0.0231
      6 C         142.1393  141.3375  168.5699 C.ar    1  UNL1        0.1387
      7 C         141.5533  141.9418  167.3284 C.ar    1  UNL1        0.0366
      8 C         141.4979  141.1433  166.0598 C.ar    1  UNL1       -0.0011
      9 C         142.0285  139.7406  166.0327 C.ar    1  UNL1       -0.0209
     10 C         142.6145  139.1363  167.2741 C.ar    1  UNL1       -0.0011
     11 C         142.6700  139.9348  168.5428 C.ar    1  UNL1        0.0366
     12 C         141.3056  143.3315  170.0117 C.3     1  UNL1        0.2525
     13 O         142.1948  142.1359  169.8385 O.3     1  UNL1       -0.4714
     14 C         143.1352  137.8842  161.2150 C.3     1  UNL1        0.0768
     15 C         144.1011  138.9040  160.6887 C.3     1  UNL1        0.0438
     16 C         143.6508  140.3167  160.4621 C.ar    1  UNL1       -0.0176
     17 C         142.5900  140.6115  159.4432 C.ar    1  UNL1       -0.0009
     18 C         142.1397  142.0242  159.2166 C.ar    1  UNL1        0.0397
     19 C         142.7501  143.1422  160.0089 C.ar    1  UNL1        0.1724
     20 C         143.8107  142.8474  161.0277 C.ar    1  UNL1        0.1721
     21 C         144.2611  141.4346  161.2543 C.ar    1  UNL1        0.0358
     22 O         142.2997  144.5549  159.7823 O.3     1  UNL1       -0.4684
     23 C         141.1169  145.0942  160.5307 C.3     1  UNL1        0.2526
     24 O         144.4211  143.9654  161.8200 O.3     1  UNL1       -0.4684
     25 C         143.8818  144.3036  163.1782 C.3     1  UNL1        0.2526
     26 C         139.8666  137.3982  165.3333 C.3     1  UNL1        0.0230
     27 C         138.5536  138.1232  165.3364 C.3     1  UNL1        0.0898
     28 N         138.5152  139.6065  165.1163 N.am    1  UNL1       -0.3009
     29 C         138.2472  140.1546  163.7460 C.2     1  UNL1        0.2459
     30 O         138.0174  139.2196  162.5958 O.2     1  UNL1       -0.2701
     31 H         138.6660  140.2202  165.8712 H       1  UNL1        0.1497
     32 C         138.2088  141.6379  163.5259 C.ar    1  UNL1        0.0542
     33 C         138.0349  142.1863  162.1406 C.ar    1  UNL1        0.0046
     34 C         137.9965  143.6695  161.9203 C.ar    1  UNL1        0.0010
     35 C         138.1321  144.6045  163.0855 C.ar    1  UNL1        0.0114
     36 C         138.3060  144.0561  164.4708 C.ar    1  UNL1        0.0578
     37 CL        138.4415  144.9910  165.6360 Cl      1  UNL1       -0.0822
     38 C         138.3443  142.5728  164.6910 C.ar    1  UNL1        0.0159
@<TRIPOS>BOND
     1    12    13    1
     2    13     6    1
     3     6     7   ar
     4     7     8   ar
     5     8     9   ar
     6     1     9    1
     7     1     2    1
     8     2     3    1
     9     3    14    1
    10    14    15    1
    11    15    16    1
    12    16    17   ar
    13    17    18   ar
    14    18    19   ar
    15    19    22    1
    16    22    23    1
    17    19    20   ar
    18    20    24    1
    19    24    25    1
    20    20    21   ar
    21     3     4    1
    22     4     5    1
    23     5    26    1
    24    26    27    1
    25    27    28    1
    26    28    29   am
    27    29    30    2
    28    29    32    1
    29    32    33   ar
    30    33    34   ar
    31    34    35   ar
    32    35    36   ar
    33    36    37    1
    34    36    38   ar
    35     9    10   ar
    36    10    11   ar
    37    11     6   ar
    38     5     1    1
    39    38    32   ar
    40    21    16   ar
    41    28    31    1
@<TRIPOS>MOLECULE
*****
 38 41 0 0 0
SMALL
GASTEIGER

@<TRIPOS>ATOM
      1 C         139.5436  140.8627  166.0423 C.3     1  UNL1        0.0397
      2 C         139.5711  142.2249  165.4149 C.3     1  UNL1        0.0765
      3 N         138.4900  142.2790  164.3764 N.3     1  UNL1       -0.2721
      4 C         137.7943  140.9501  164.3620 C.3     1  UNL1        0.0725
      5 C         138.4454  140.0749  165.3915 C.3     1  UNL1        0.0231
      6 C         142.2755  139.3970  169.3039 C.ar    1  UNL1        0.1387
      7 C         140.9145  139.9261  169.6469 C.ar    1  UNL1        0.0366
      8 C         140.0039  140.4147  168.5597 C.ar    1  UNL1       -0.0011
      9 C         140.4542  140.3741  167.1295 C.ar    1  UNL1       -0.0209
     10 C         141.8152  139.8450  166.7865 C.ar    1  UNL1       -0.0011
     11 C         142.7258  139.3564  167.8737 C.ar    1  UNL1        0.0366
     12 C         143.4626  137.4412  170.5349 C.3     1  UNL1        0.2525
     13 O         143.1861  138.9084  170.3911 O.3     1  UNL1       -0.4714
     14 C         138.1623  143.4553  163.5053 C.3     1  UNL1        0.0768
     15 C         138.8229  143.6046  162.1670 C.3     1  UNL1        0.0438
     16 C         140.2806  143.2876  162.0106 C.ar    1  UNL1       -0.0176
     17 C         140.7035  141.9807  161.4076 C.ar    1  UNL1       -0.0009
     18 C         142.1612  141.6637  161.2512 C.ar    1  UNL1        0.0397
     19 C         143.1961  142.6535  161.6978 C.ar    1  UNL1        0.1724
     20 C         142.7733  143.9602  162.3008 C.ar    1  UNL1        0.1721
     21 C         141.3154  144.2773  162.4572 C.ar    1  UNL1        0.0358
     22 O         144.6539  142.3365  161.5415 O.3     1  UNL1       -0.4684
     23 C         145.4362  141.8101  162.7080 C.3     1  UNL1        0.2526
     24 O         143.8082  144.9499  162.7474 O.3     1  UNL1       -0.4684
     25 C         143.9637  145.2661  164.2054 C.3     1  UNL1        0.2526
     26 C         138.0652  138.6601  165.7138 C.3     1  UNL1        0.0230
     27 C         138.9319  137.5266  165.2514 C.3     1  UNL1        0.0898
     28 N         139.9518  137.7529  164.1750 N.am    1  UNL1       -0.3009
     29 C         139.5245  137.8173  162.7386 C.2     1  UNL1        0.2459
     30 O         138.0775  137.6555  162.3785 O.2     1  UNL1       -0.2701
     31 H         140.9016  137.8592  164.4113 H       1  UNL1        0.1497
     32 C         140.5444  138.0437  161.6622 C.ar    1  UNL1        0.0542
     33 C         141.9997  137.8210  161.9492 C.ar    1  UNL1        0.0046
     34 C         143.0197  138.0473  160.8728 C.ar    1  UNL1        0.0010
     35 C         142.5842  138.4963  159.5094 C.ar    1  UNL1        0.0114
     36 C         141.1288  138.7190  159.2224 C.ar    1  UNL1        0.0578
     37 CL        140.6933  139.1680  157.8591 Cl      1  UNL1       -0.0822
     38 C         140.1089  138.4927  160.2989 C.ar    1  UNL1        0.0159
@<TRIPOS>BOND
     1    12    13    1
     2    13     6    1
     3     6     7   ar
     4     7     8   ar
     5     8     9   ar
     6     1     9    1
     7     1     2    1
     8     2     3    1
     9     3    14    1
    10    14    15    1
    11    15    16    1
    12    16    17   ar
    13    17    18   ar
    14    18    19   ar
    15    19    22    1
    16    22    23    1
    17    19    20   ar
    18    20    24    1
    19    24    25    1
    20    20    21   ar
    21     3     4    1
    22     4     5    1
    23     5    26    1
    24    26    27    1
    25    27    28    1
    26    28    29   am
    27    29    30    2
    28    29    32    1
    29    32    33   ar
    30    33    34   ar
    31    34    35   ar
    32    35    36   ar
    33    36    37    1
    34    36    38   ar
    35     9    10   ar
    36    10    11   ar
    37    11     6   ar
    38     5     1    1
    39    38    32   ar
    40    21    16   ar
    41    28    31    1
@<TRIPOS>MOLECULE
*****
 38 41 0 0 0
SMALL
GASTEIGER

@<TRIPOS>ATOM
      1 C         141.7197  138.9276  165.0807 C.3     1  UNL1        0.0397
      2 C         142.6637  139.1160  163.9303 C.3     1  UNL1        0.0765
      3 N         142.2201  138.2169  162.8145 N.3     1  UNL1       -0.2721
      4 C         141.0019  137.4728  163.2753 C.3     1  UNL1        0.0725
      5 C         140.6927  137.9120  164.6759 C.3     1  UNL1        0.0231
      6 C         141.9317  141.0382  169.0493 C.ar    1  UNL1        0.1387
      7 C         141.1068  141.6141  167.9367 C.ar    1  UNL1        0.0366
      8 C         141.0362  140.9105  166.6138 C.ar    1  UNL1       -0.0011
      9 C         141.7904  139.6311  166.4035 C.ar    1  UNL1       -0.0209
     10 C         142.6153  139.0553  167.5161 C.ar    1  UNL1       -0.0011
     11 C         142.6859  139.7589  168.8390 C.ar    1  UNL1        0.0366
     12 C         142.7372  143.0440  170.4908 C.3     1  UNL1        0.2525
     13 O         142.0023  141.7418  170.3722 O.3     1  UNL1       -0.4714
     14 C         142.8790  138.0851  161.4735 C.3     1  UNL1        0.0768
     15 C         144.1199  138.8702  161.1671 C.3     1  UNL1        0.0438
     16 C         144.1888  140.3285  161.5115 C.ar    1  UNL1       -0.0176
     17 C         144.9874  140.7820  162.6977 C.ar    1  UNL1       -0.0009
     18 C         145.0564  142.2403  163.0421 C.ar    1  UNL1        0.0397
     19 C         144.3268  143.2450  162.2004 C.ar    1  UNL1        0.1724
     20 C         143.5283  142.7915  161.0144 C.ar    1  UNL1        0.1721
     21 C         143.4593  141.3331  160.6699 C.ar    1  UNL1        0.0358
     22 O         144.3958  144.7033  162.5448 O.3     1  UNL1       -0.4684
     23 C         143.5569  145.2507  163.6613 C.3     1  UNL1        0.2526
     24 O         142.7988  143.7962  160.1728 O.3     1  UNL1       -0.4684
     25 C         141.3011  143.8657  160.2172 C.3     1  UNL1        0.2526
     26 C         139.5559  137.4218  165.5229 C.3     1  UNL1        0.0230
     27 C         138.2865  138.2163  165.6074 C.3     1  UNL1        0.0898
     28 N         138.3037  139.6896  165.3264 N.am    1  UNL1       -0.3009
     29 C         138.1458  140.1868  163.9200 C.2     1  UNL1        0.2459
     30 O         137.9708  139.2107  162.7946 O.2     1  UNL1       -0.2701
     31 H         138.4185  140.3303  166.0650 H       1  UNL1        0.1497
     32 C         138.1630  141.6601  163.6390 C.ar    1  UNL1        0.0542
     33 C         138.0244  142.1566  162.2303 C.ar    1  UNL1        0.0046
     34 C         138.0415  143.6300  161.9492 C.ar    1  UNL1        0.0010
     35 C         138.1973  144.6068  163.0768 C.ar    1  UNL1        0.0114
     36 C         138.3359  144.1103  164.4855 C.ar    1  UNL1        0.0578
     37 CL        138.4917  145.0872  165.6131 Cl      1  UNL1       -0.0822
     38 C         138.3187  142.6370  164.7665 C.ar    1  UNL1        0.0159
@<TRIPOS>BOND
     1    12    13    1
     2    13     6    1
     3     6     7   ar
     4     7     8   ar
     5     8     9   ar
     6     1     9    1
     7     1     2    1
     8     2     3    1
     9     3    14    1
    10    14    15    1
    11    15    16    1
    12    16    17   ar
    13    17    18   ar
    14    18    19   ar
    15    19    22    1
    16    22    23    1
    17    19    20   ar
    18    20    24    1
    19    24    25    1
    20    20    21   ar
    21     3     4    1
    22     4     5    1
    23     5    26    1
    24    26    27    1
    25    27    28    1
    26    28    29   am
    27    29    30    2
    28    29    32    1
    29    32    33   ar
    30    33    34   ar
    31    34    35   ar
    32    35    36   ar
    33    36    37    1
    34    36    38   ar
    35     9    10   ar
    36    10    11   ar
    37    11     6   ar
    38     5     1    1
    39    38    32   ar
    40    21    16   ar
    41    28    31    1
@<TRIPOS>MOLECULE
*****
 38 41 0 0 0
SMALL
GASTEIGER

@<TRIPOS>ATOM
      1 C         143.3268  141.6000  165.8781 C.3     1  UNL1        0.0397
      2 C         143.3252  140.1799  165.3951 C.3     1  UNL1        0.0765
      3 N         144.2958  140.0766  164.2561 N.3     1  UNL1       -0.2721
      4 C         144.8972  141.4329  164.0351 C.3     1  UNL1        0.0725
      5 C         144.2983  142.3744  165.0376 C.3     1  UNL1        0.0231
      6 C         140.8515  143.2479  169.2557 C.ar    1  UNL1        0.1387
      7 C         142.2779  142.8506  169.4956 C.ar    1  UNL1        0.0366
      8 C         143.1030  142.3013  168.3697 C.ar    1  UNL1       -0.0011
      9 C         142.5017  142.1493  167.0040 C.ar    1  UNL1       -0.0209
     10 C         141.0753  142.5467  166.7641 C.ar    1  UNL1       -0.0011
     11 C         140.2503  143.0960  167.8899 C.ar    1  UNL1        0.0366
     12 C         139.2139  142.8712  171.2371 C.3     1  UNL1        0.2525
     13 O         140.0265  143.7972  170.3815 O.3     1  UNL1       -0.4714
     14 C         144.6097  138.8350  163.4752 C.3     1  UNL1        0.0768
     15 C         143.8735  138.5441  162.2011 C.3     1  UNL1        0.0438
     16 C         142.3892  138.7487  162.1292 C.ar    1  UNL1       -0.0176
     17 C         141.8156  139.7479  161.1685 C.ar    1  UNL1       -0.0009
     18 C         140.3314  139.9525  161.0966 C.ar    1  UNL1        0.0397
     19 C         139.4208  139.1581  161.9852 C.ar    1  UNL1        0.1724
     20 C         139.9944  138.1590  162.9458 C.ar    1  UNL1        0.1721
     21 C         141.4787  137.9543  163.0178 C.ar    1  UNL1        0.0358
     22 O         137.9365  139.3627  161.9133 O.3     1  UNL1       -0.4684
     23 C         137.2685  139.5467  160.5830 C.3     1  UNL1        0.2526
     24 O         139.0838  137.3646  163.8345 O.3     1  UNL1       -0.4684
     25 C         138.8339  137.8119  165.2443 C.3     1  UNL1        0.2526
     26 C         144.6153  143.8340  165.1753 C.3     1  UNL1        0.0230
     27 C         143.8072  144.8511  164.4254 C.3     1  UNL1        0.0898
     28 N         142.4673  144.4784  163.8636 N.am    1  UNL1       -0.3009
     29 C         142.3484  144.0437  162.4329 C.2     1  UNL1        0.2459
     30 O         143.5694  143.9817  161.5639 O.2     1  UNL1       -0.2701
     31 H         141.6658  144.5191  164.4339 H       1  UNL1        0.1497
     32 C         141.0084  143.6710  161.8711 C.ar    1  UNL1        0.0542
     33 C         140.7906  143.6728  160.3871 C.ar    1  UNL1        0.0046
     34 C         139.4506  143.3001  159.8252 C.ar    1  UNL1        0.0010
     35 C         138.3285  142.9256  160.7475 C.ar    1  UNL1        0.0114
     36 C         138.5464  142.9238  162.2316 C.ar    1  UNL1        0.0578
     37 CL        137.4243  142.5493  163.1539 Cl      1  UNL1       -0.0822
     38 C         139.8863  143.2965  162.7934 C.ar    1  UNL1        0.0159
@<TRIPOS>BOND
     1    12    13    1
     2    13     6    1
     3     6     7   ar
     4     7     8   ar
     5     8     9   ar
     6     1     9    1
     7     1     2    1
     8     2     3    1
     9     3    14    1
    10    14    15    1
    11    15    16    1
    12    16    17   ar
    13    17    18   ar
    14    18    19   ar
    15    19    22    1
    16    22    23    1
    17    19    20   ar
    18    20    24    1
    19    24    25    1
    20    20    21   ar
    21     3     4    1
    22     4     5    1
    23     5    26    1
    24    26    27    1
    25    27    28    1
    26    28    29   am
    27    29    30    2
    28    29    32    1
    29    32    33   ar
    30    33    34   ar
    31    34    35   ar
    32    35    36   ar
    33    36    37    1
    34    36    38   ar
    35     9    10   ar
    36    10    11   ar
    37    11     6   ar
    38     5     1    1
    39    38    32   ar
    40    21    16   ar
    41    28    31    1
@<TRIPOS>MOLECULE
*****
 38 41 0 0 0
SMALL
GASTEIGER

@<TRIPOS>ATOM
      1 C         138.8315  140.7387  160.9396 C.3     1  UNL1        0.0397
      2 C         138.7654  142.2240  161.1383 C.3     1  UNL1        0.0765
      3 N         138.0042  142.4891  162.4033 N.3     1  UNL1       -0.2721
      4 C         137.5998  141.1676  162.9865 C.3     1  UNL1        0.0725
      5 C         138.1111  140.0858  162.0819 C.3     1  UNL1        0.0231
      6 C         140.8384  138.6145  157.5176 C.ar    1  UNL1        0.1387
      7 C         139.5246  139.3061  157.3041 C.ar    1  UNL1        0.0366
      8 C         138.8556  140.0141  158.4447 C.ar    1  UNL1       -0.0011
      9 C         139.5004  140.0306  159.7989 C.ar    1  UNL1       -0.0209
     10 C         140.8143  139.3391  160.0124 C.ar    1  UNL1       -0.0011
     11 C         141.4832  138.6310  158.8718 C.ar    1  UNL1        0.0366
     12 C         142.9946  137.7116  156.3839 C.3     1  UNL1        0.2525
     13 O         141.5074  137.9065  156.3769 O.3     1  UNL1       -0.4714
     14 C         137.7006  143.8387  162.9833 C.3     1  UNL1        0.0768
     15 C         138.5387  144.3792  164.1038 C.3     1  UNL1        0.0438
     16 C         139.9738  143.9630  164.2351 C.ar    1  UNL1       -0.0176
     17 C         140.4195  143.1742  165.4307 C.ar    1  UNL1       -0.0009
     18 C         141.8546  142.7580  165.5620 C.ar    1  UNL1        0.0397
     19 C         142.8440  143.1305  164.4979 C.ar    1  UNL1        0.1724
     20 C         142.3983  143.9193  163.3024 C.ar    1  UNL1        0.1721
     21 C         140.9631  144.3355  163.1710 C.ar    1  UNL1        0.0358
     22 O         144.2791  142.7144  164.6292 O.3     1  UNL1       -0.4684
     23 C         144.6916  141.3189  164.2652 C.3     1  UNL1        0.2526
     24 O         143.3877  144.2919  162.2383 O.3     1  UNL1       -0.4684
     25 C         143.7555  143.2993  161.1756 C.3     1  UNL1        0.2526
     26 C         137.9333  138.6102  162.2840 C.3     1  UNL1        0.0230
     27 C         139.0131  137.8086  162.9484 C.3     1  UNL1        0.0898
     28 N         139.3864  138.0893  164.3738 N.am    1  UNL1       -0.3009
     29 C         140.4533  139.0966  164.6853 C.2     1  UNL1        0.2459
     30 O         141.1469  139.8233  163.5714 O.2     1  UNL1       -0.2701
     31 H         138.9311  137.6124  165.1049 H       1  UNL1        0.1497
     32 C         140.8266  139.3773  166.1107 C.ar    1  UNL1        0.0542
     33 C         142.2543  139.2468  166.5518 C.ar    1  UNL1        0.0046
     34 C         142.6277  139.5275  167.9772 C.ar    1  UNL1        0.0010
     35 C         141.5733  139.9387  168.9616 C.ar    1  UNL1        0.0114
     36 C         140.1454  140.0692  168.5206 C.ar    1  UNL1        0.0578
     37 CL        139.0910  140.4805  169.5050 Cl      1  UNL1       -0.0822
     38 C         139.7721  139.7885  167.0951 C.ar    1  UNL1        0.0159
@<TRIPOS>BOND
     1    12    13    1
     2    13     6    1
     3     6     7   ar
     4     7     8   ar
     5     8     9   ar
     6     1     9    1
     7     1     2    1
     8     2     3    1
     9     3    14    1
    10    14    15    1
    11    15    16    1
    12    16    17   ar
    13    17    18   ar
    14    18    19   ar
    15    19    22    1
    16    22    23    1
    17    19    20   ar
    18    20    24    1
    19    24    25    1
    20    20    21   ar
    21     3     4    1
    22     4     5    1
    23     5    26    1
    24    26    27    1
    25    27    28    1
    26    28    29   am
    27    29    30    2
    28    29    32    1
    29    32    33   ar
    30    33    34   ar
    31    34    35   ar
    32    35    36   ar
    33    36    37    1
    34    36    38   ar
    35     9    10   ar
    36    10    11   ar
    37    11     6   ar
    38     5     1    1
    39    38    32   ar
    40    21    16   ar
    41    28    31    1
