@<TRIPOS>MOLECULE
*****
 40 45 0 0 0
SMALL
GASTEIGER

@<TRIPOS>ATOM
      1 C         137.7513  142.6156  163.8007 C.3     1  UNL1        0.0932
      2 C         137.8696  141.3481  164.5943 C.3     1  UNL1        0.0286
      3 C         137.9463  140.0264  163.8894 C.3     1  UNL1        0.0193
      4 C         137.9047  139.9719  162.3909 C.3     1  UNL1        0.0700
      5 C         137.7864  141.2393  161.5974 C.3     1  UNL1        0.0193
      6 C         137.7096  142.5612  162.3023 C.3     1  UNL1        0.0286
      7 C         137.8596  140.7197  162.7326 C.3     1  UNL1        0.1562
      8 O         137.7902  141.9149  163.3700 O.3     1  UNL1       -0.3572
      9 N         137.9814  138.6501  161.6860 N.3     1  UNL1       -0.2926
     10 H         137.4126  138.7323  160.8433 H       1  UNL1        0.1236
     11 C         139.3116  138.1040  161.2589 C.3     1  UNL1        0.1152
     12 C         140.5109  138.2732  162.1437 C.ar    1  UNL1        0.0765
     13 C         140.6577  137.4323  163.3771 C.ar    1  UNL1        0.0193
     14 C         141.8571  137.6016  164.2619 C.ar    1  UNL1        0.0411
     15 C         142.9097  138.6117  163.9133 C.ar    1  UNL1        0.1708
     16 C         142.7630  139.4527  162.6799 C.ar    1  UNL1        0.1682
     17 N         141.5636  139.2834  161.7951 N.ar    1  UNL1       -0.2304
     18 N         143.8156  140.4629  162.3313 N.am    1  UNL1       -0.2639
     19 C         145.0149  140.6321  163.2161 C.2     1  UNL1        0.2718
     20 O         146.0675  141.6423  162.8675 O.2     1  UNL1       -0.2707
     21 C         145.1617  139.7912  164.4496 C.3     1  UNL1        0.2898
     22 O         144.1091  138.7810  164.7982 O.3     1  UNL1       -0.4628
     23 H         143.7193  141.0148  161.5218 H       1  UNL1        0.1565
     24 C         137.6745  143.9374  164.5056 C.3     1  UNL1        0.0319
     25 C         138.8804  144.8277  164.5634 C.3     1  UNL1        0.0302
     26 C         140.9841  142.3807  167.6996 C.ar    1  UNL1        0.2250
     27 C         142.3463  141.8173  167.4224 C.ar    1  UNL1        0.0593
     28 C         143.0073  142.0696  166.0997 C.ar    1  UNL1        0.0254
     29 C         142.3061  142.8852  165.0543 C.ar    1  UNL1        0.0988
     30 N         142.9671  143.1375  163.7316 N.ar    1  UNL1       -0.2425
     31 C         142.2659  143.9532  162.6862 C.ar    1  UNL1        0.0997
     32 C         140.9036  144.5166  162.9634 C.ar    1  UNL1        0.0602
     33 C         140.2426  144.2643  164.2861 C.ar    1  UNL1       -0.0001
     34 C         140.9439  143.4486  165.3315 C.ar    1  UNL1        0.0979
     35 N         140.2829  143.1963  166.6542 N.ar    1  UNL1       -0.2105
     36 C         140.2024  145.3323  161.9180 C.3     1  UNL1        0.3422
     37 F         140.0133  146.8067  162.1191 F       1  UNL1       -0.1932
     38 F         139.6902  144.6736  160.6715 F       1  UNL1       -0.1932
     39 C         140.2269  143.2307  170.0350 C.3     1  UNL1        0.2542
     40 O         140.3231  142.1284  169.0223 O.3     1  UNL1       -0.4561
@<TRIPOS>BOND
     1    39    40    1
     2    40    26    1
     3    26    27   ar
     4    27    28   ar
     5    28    29   ar
     6    29    30   ar
     7    30    31   ar
     8    31    32   ar
     9    32    36    1
    10    36    37    1
    11    36    38    1
    12    32    33   ar
    13    33    25    1
    14    25    24    1
    15    24     1    1
    16     1     2    1
    17     2     3    1
    18     3     4    1
    19     4     9    1
    20     9    11    1
    21    11    12    1
    22    12    13   ar
    23    13    14   ar
    24    14    15   ar
    25    15    16   ar
    26    16    17   ar
    27    16    18    1
    28    18    19   am
    29    19    20    2
    30    19    21    1
    31    21    22    1
    32     4     5    1
    33     5     6    1
    34     4     7    1
    35     7     8    1
    36    33    34   ar
    37    34    35   ar
    38    35    26   ar
    39    34    29   ar
    40     6     1    1
    41     8     1    1
    42    17    12   ar
    43    22    15    1
    44     9    10    1
    45    18    23    1
@<TRIPOS>MOLECULE
*****
 40 45 0 0 0
SMALL
GASTEIGER

@<TRIPOS>ATOM
      1 C         144.4492  139.7547  163.7071 C.3     1  UNL1        0.0932
      2 C         144.2381  139.2188  162.3221 C.3     1  UNL1        0.0286
      3 C         143.0720  138.3200  162.0354 C.3     1  UNL1        0.0193
      4 C         142.1169  137.9570  163.1337 C.3     1  UNL1        0.0700
      5 C         142.3280  138.4929  164.5187 C.3     1  UNL1        0.0193
      6 C         143.4942  139.3918  164.8054 C.3     1  UNL1        0.0286
      7 C         142.7413  138.4528  163.3390 C.3     1  UNL1        0.1562
      8 O         143.7958  139.2656  163.5983 O.3     1  UNL1       -0.3572
      9 N         140.9508  137.0582  162.8469 N.3     1  UNL1       -0.2926
     10 H         140.7885  136.5082  163.6905 H       1  UNL1        0.1236
     11 C         139.6287  137.6473  162.4532 C.3     1  UNL1        0.1152
     12 C         139.1783  138.9465  163.0524 C.ar    1  UNL1        0.0765
     13 C         138.5977  138.9733  164.4353 C.ar    1  UNL1        0.0193
     14 C         138.1472  140.2725  165.0346 C.ar    1  UNL1        0.0411
     15 C         138.2773  141.5449  164.2510 C.ar    1  UNL1        0.1708
     16 C         138.8578  141.5182  162.8682 C.ar    1  UNL1        0.1682
     17 N         139.3083  140.2190  162.2689 N.ar    1  UNL1       -0.2304
     18 N         138.9879  142.7906  162.0846 N.am    1  UNL1       -0.2639
     19 C         138.5374  144.0898  162.6839 C.2     1  UNL1        0.2718
     20 O         138.6675  145.3623  161.9003 O.2     1  UNL1       -0.2707
     21 C         137.9569  144.1166  164.0668 C.3     1  UNL1        0.2898
     22 O         137.8268  142.8442  164.8503 O.3     1  UNL1       -0.4628
     23 H         139.3689  142.7731  161.1770 H       1  UNL1        0.1565
     24 C         145.6153  140.6536  163.9938 C.3     1  UNL1        0.0319
     25 C         145.6857  142.0141  163.3661 C.3     1  UNL1        0.0302
     26 C         144.1357  142.4476  159.1637 C.ar    1  UNL1        0.2250
     27 C         142.8764  143.2202  158.9048 C.ar    1  UNL1        0.0593
     28 C         142.1337  143.8484  160.0467 C.ar    1  UNL1        0.0254
     29 C         142.6503  143.7039  161.4474 C.ar    1  UNL1        0.0988
     30 N         141.9076  144.3320  162.5893 N.ar    1  UNL1       -0.2425
     31 C         142.4243  144.1875  163.9901 C.ar    1  UNL1        0.0997
     32 C         143.6837  143.4149  164.2490 C.ar    1  UNL1        0.0602
     33 C         144.4264  142.7867  163.1072 C.ar    1  UNL1       -0.0001
     34 C         143.9097  142.9313  161.7063 C.ar    1  UNL1        0.0979
     35 N         144.6524  142.3031  160.5645 N.ar    1  UNL1       -0.2105
     36 C         144.2003  143.2704  165.6498 C.3     1  UNL1        0.3422
     37 F         143.6001  142.2481  166.5688 F       1  UNL1       -0.1932
     38 F         145.3172  144.1482  166.1315 F       1  UNL1       -0.1932
     39 C         146.0742  142.5091  157.4350 C.3     1  UNL1        0.2542
     40 O         144.8784  141.8195  158.0219 O.3     1  UNL1       -0.4561
@<TRIPOS>BOND
     1    39    40    1
     2    40    26    1
     3    26    27   ar
     4    27    28   ar
     5    28    29   ar
     6    29    30   ar
     7    30    31   ar
     8    31    32   ar
     9    32    36    1
    10    36    37    1
    11    36    38    1
    12    32    33   ar
    13    33    25    1
    14    25    24    1
    15    24     1    1
    16     1     2    1
    17     2     3    1
    18     3     4    1
    19     4     9    1
    20     9    11    1
    21    11    12    1
    22    12    13   ar
    23    13    14   ar
    24    14    15   ar
    25    15    16   ar
    26    16    17   ar
    27    16    18    1
    28    18    19   am
    29    19    20    2
    30    19    21    1
    31    21    22    1
    32     4     5    1
    33     5     6    1
    34     4     7    1
    35     7     8    1
    36    33    34   ar
    37    34    35   ar
    38    35    26   ar
    39    34    29   ar
    40     6     1    1
    41     8     1    1
    42    17    12   ar
    43    22    15    1
    44     9    10    1
    45    18    23    1
@<TRIPOS>MOLECULE
*****
 40 45 0 0 0
SMALL
GASTEIGER

@<TRIPOS>ATOM
      1 C         142.1565  137.9810  164.0094 C.3     1  UNL1        0.0932
      2 C         142.4301  138.3383  162.5785 C.3     1  UNL1        0.0286
      3 C         143.5909  139.2243  162.2355 C.3     1  UNL1        0.0193
      4 C         144.4781  139.7530  163.3234 C.3     1  UNL1        0.0700
      5 C         144.2045  139.3957  164.7543 C.3     1  UNL1        0.0193
      6 C         143.0436  138.5097  165.0973 C.3     1  UNL1        0.0286
      7 C         143.8540  139.2709  163.5602 C.3     1  UNL1        0.1562
      8 O         142.8044  138.4698  163.8705 O.3     1  UNL1       -0.3572
      9 N         145.6388  140.6389  162.9804 N.3     1  UNL1       -0.2926
     10 H         145.7147  140.6441  161.9632 H       1  UNL1        0.1236
     11 C         145.6446  142.0723  163.4223 C.3     1  UNL1        0.1152
     12 C         144.4126  142.9124  163.2594 C.ar    1  UNL1        0.0765
     13 C         143.6885  143.4243  164.4693 C.ar    1  UNL1        0.0193
     14 C         142.4566  144.2643  164.3064 C.ar    1  UNL1        0.0411
     15 C         141.9487  144.5925  162.9337 C.ar    1  UNL1        0.1708
     16 C         142.6727  144.0806  161.7239 C.ar    1  UNL1        0.1682
     17 N         143.9047  143.2405  161.8867 N.ar    1  UNL1       -0.2304
     18 N         142.1648  144.4088  160.3511 N.am    1  UNL1       -0.2639
     19 C         140.9329  145.2488  160.1882 C.2     1  UNL1        0.2718
     20 O         140.4249  145.5770  158.8155 O.2     1  UNL1       -0.2707
     21 C         140.2087  145.7607  161.3981 C.3     1  UNL1        0.2898
     22 O         140.7166  145.4326  162.7708 O.3     1  UNL1       -0.4628
     23 H         142.6400  144.0728  159.5571 H       1  UNL1        0.1565
     24 C         140.9958  137.0951  164.3525 C.3     1  UNL1        0.0319
     25 C         139.6599  137.6987  164.6709 C.3     1  UNL1        0.0302
     26 C         140.6302  140.9366  167.6415 C.ar    1  UNL1        0.2250
     27 C         140.3558  142.3719  167.3028 C.ar    1  UNL1        0.0593
     28 C         139.7579  142.7278  165.9739 C.ar    1  UNL1        0.0254
     29 C         139.4345  141.6485  164.9838 C.ar    1  UNL1        0.0988
     30 N         138.8367  142.0045  163.6549 N.ar    1  UNL1       -0.2425
     31 C         138.5132  140.9252  162.6647 C.ar    1  UNL1        0.0997
     32 C         138.7877  139.4898  163.0034 C.ar    1  UNL1        0.0602
     33 C         139.3855  139.1339  164.3323 C.ar    1  UNL1       -0.0001
     34 C         139.7089  140.2133  165.3225 C.ar    1  UNL1        0.0979
     35 N         140.3068  139.8573  166.6513 N.ar    1  UNL1       -0.2105
     36 C         138.4642  138.4106  162.0132 C.3     1  UNL1        0.3422
     37 F         139.5706  137.6432  161.3520 F       1  UNL1       -0.1932
     38 F         137.0344  138.0985  161.6842 F       1  UNL1       -0.1932
     39 C         142.4302  139.6860  169.0365 C.3     1  UNL1        0.2542
     40 O         141.2281  140.5807  168.9703 O.3     1  UNL1       -0.4561
@<TRIPOS>BOND
     1    39    40    1
     2    40    26    1
     3    26    27   ar
     4    27    28   ar
     5    28    29   ar
     6    29    30   ar
     7    30    31   ar
     8    31    32   ar
     9    32    36    1
    10    36    37    1
    11    36    38    1
    12    32    33   ar
    13    33    25    1
    14    25    24    1
    15    24     1    1
    16     1     2    1
    17     2     3    1
    18     3     4    1
    19     4     9    1
    20     9    11    1
    21    11    12    1
    22    12    13   ar
    23    13    14   ar
    24    14    15   ar
    25    15    16   ar
    26    16    17   ar
    27    16    18    1
    28    18    19   am
    29    19    20    2
    30    19    21    1
    31    21    22    1
    32     4     5    1
    33     5     6    1
    34     4     7    1
    35     7     8    1
    36    33    34   ar
    37    34    35   ar
    38    35    26   ar
    39    34    29   ar
    40     6     1    1
    41     8     1    1
    42    17    12   ar
    43    22    15    1
    44     9    10    1
    45    18    23    1
@<TRIPOS>MOLECULE
*****
 40 45 0 0 0
SMALL
GASTEIGER

@<TRIPOS>ATOM
      1 C         142.5424  138.3084  164.1368 C.3     1  UNL1        0.0932
      2 C         142.6057  138.3509  162.6387 C.3     1  UNL1        0.0286
      3 C         141.3751  138.0717  161.8278 C.3     1  UNL1        0.0193
      4 C         140.0811  137.7499  162.5150 C.3     1  UNL1        0.0700
      5 C         140.0178  137.7073  164.0131 C.3     1  UNL1        0.0193
      6 C         141.2485  137.9866  164.8240 C.3     1  UNL1        0.0286
      7 C         140.7290  137.8958  163.0017 C.3     1  UNL1        0.1562
      8 O         141.8417  138.1483  163.7350 O.3     1  UNL1       -0.3572
      9 N         138.8505  137.4706  161.7041 N.3     1  UNL1       -0.2926
     10 H         138.4915  136.5680  162.0152 H       1  UNL1        0.1236
     11 C         137.6975  138.4296  161.7363 C.3     1  UNL1        0.1152
     12 C         137.9515  139.9079  161.7433 C.ar    1  UNL1        0.0765
     13 C         138.2496  140.6237  160.4592 C.ar    1  UNL1        0.0193
     14 C         138.5036  142.1020  160.4662 C.ar    1  UNL1        0.0411
     15 C         138.4595  142.8645  161.7572 C.ar    1  UNL1        0.1708
     16 C         138.1614  142.1487  163.0412 C.ar    1  UNL1        0.1682
     17 N         137.9073  140.6704  163.0342 N.ar    1  UNL1       -0.2304
     18 N         138.1172  142.9112  164.3322 N.am    1  UNL1       -0.2639
     19 C         138.3712  144.3895  164.3391 C.2     1  UNL1        0.2718
     20 O         138.3270  145.1520  165.6301 O.2     1  UNL1       -0.2707
     21 C         138.6694  145.1054  163.0551 C.3     1  UNL1        0.2898
     22 O         138.7135  144.3429  161.7641 O.3     1  UNL1       -0.4628
     23 H         137.9215  142.4414  165.1749 H       1  UNL1        0.1565
     24 C         143.7730  138.5877  164.9476 C.3     1  UNL1        0.0319
     25 C         144.2782  139.9935  165.0842 C.3     1  UNL1        0.0302
     26 C         141.3679  140.7310  168.4362 C.ar    1  UNL1        0.2250
     27 C         140.4104  141.8830  168.3582 C.ar    1  UNL1        0.0593
     28 C         140.4230  142.7891  167.1629 C.ar    1  UNL1        0.0254
     29 C         141.3931  142.5433  166.0456 C.ar    1  UNL1        0.0988
     30 N         141.4057  143.4494  164.8503 N.ar    1  UNL1       -0.2425
     31 C         142.3758  143.2036  163.7329 C.ar    1  UNL1        0.0997
     32 C         143.3333  142.0516  163.8109 C.ar    1  UNL1        0.0602
     33 C         143.3207  141.1454  165.0062 C.ar    1  UNL1       -0.0001
     34 C         142.3506  141.3913  166.1236 C.ar    1  UNL1        0.0979
     35 N         142.3380  140.4852  167.3189 N.ar    1  UNL1       -0.2105
     36 C         144.3034  141.8057  162.6936 C.3     1  UNL1        0.3422
     37 F         143.8243  141.2151  161.4007 F       1  UNL1       -0.1932
     38 F         145.7527  142.1505  162.8691 F       1  UNL1       -0.1932
     39 C         142.5459  138.9635  169.9322 C.3     1  UNL1        0.2542
     40 O         141.3553  139.8249  169.6315 O.3     1  UNL1       -0.4561
@<TRIPOS>BOND
     1    39    40    1
     2    40    26    1
     3    26    27   ar
     4    27    28   ar
     5    28    29   ar
     6    29    30   ar
     7    30    31   ar
     8    31    32   ar
     9    32    36    1
    10    36    37    1
    11    36    38    1
    12    32    33   ar
    13    33    25    1
    14    25    24    1
    15    24     1    1
    16     1     2    1
    17     2     3    1
    18     3     4    1
    19     4     9    1
    20     9    11    1
    21    11    12    1
    22    12    13   ar
    23    13    14   ar
    24    14    15   ar
    25    15    16   ar
    26    16    17   ar
    27    16    18    1
    28    18    19   am
    29    19    20    2
    30    19    21    1
    31    21    22    1
    32     4     5    1
    33     5     6    1
    34     4     7    1
    35     7     8    1
    36    33    34   ar
    37    34    35   ar
    38    35    26   ar
    39    34    29   ar
    40     6     1    1
    41     8     1    1
    42    17    12   ar
    43    22    15    1
    44     9    10    1
    45    18    23    1
@<TRIPOS>MOLECULE
*****
 40 45 0 0 0
SMALL
GASTEIGER

@<TRIPOS>ATOM
      1 C         141.8636  138.0208  164.5364 C.3     1  UNL1        0.0932
      2 C         142.1721  138.0412  163.0686 C.3     1  UNL1        0.0286
      3 C         141.0624  137.9160  162.0671 C.3     1  UNL1        0.0193
      4 C         139.6442  137.7703  162.5335 C.3     1  UNL1        0.0700
      5 C         139.3357  137.7499  164.0013 C.3     1  UNL1        0.0193
      6 C         140.4455  137.8751  165.0027 C.3     1  UNL1        0.0286
      7 C         140.2186  137.8357  163.1197 C.3     1  UNL1        0.1562
      8 O         141.2220  137.9489  164.0253 O.3     1  UNL1       -0.3572
      9 N         138.5345  137.6451  161.5321 N.3     1  UNL1       -0.2926
     10 H         138.0772  136.7508  161.7097 H       1  UNL1        0.1236
     11 C         137.4519  138.6820  161.4786 C.3     1  UNL1        0.1152
     12 C         137.8025  140.1376  161.5684 C.ar    1  UNL1        0.0765
     13 C         138.2202  140.8858  160.3372 C.ar    1  UNL1        0.0193
     14 C         138.5708  142.3415  160.4269 C.ar    1  UNL1        0.0411
     15 C         138.5038  143.0490  161.7479 C.ar    1  UNL1        0.1708
     16 C         138.0862  142.3009  162.9790 C.ar    1  UNL1        0.1682
     17 N         137.7355  140.8452  162.8893 N.ar    1  UNL1       -0.2304
     18 N         138.0192  143.0085  164.3000 N.am    1  UNL1       -0.2639
     19 C         138.3698  144.4641  164.3897 C.2     1  UNL1        0.2718
     20 O         138.3028  145.1717  165.7107 O.2     1  UNL1       -0.2707
     21 C         138.7874  145.2123  163.1585 C.3     1  UNL1        0.2898
     22 O         138.8545  144.5048  161.8376 O.3     1  UNL1       -0.4628
     23 H         137.7451  142.5174  165.1081 H       1  UNL1        0.1565
     24 C         142.9733  138.1460  165.5378 C.3     1  UNL1        0.0319
     25 C         143.5828  139.4877  165.8180 C.3     1  UNL1        0.0302
     26 C         143.8349  142.2709  162.2910 C.ar    1  UNL1        0.2250
     27 C         142.9837  143.5052  162.2473 C.ar    1  UNL1        0.0593
     28 C         142.0485  143.8118  163.3793 C.ar    1  UNL1        0.0254
     29 C         141.9645  142.8841  164.5550 C.ar    1  UNL1        0.0988
     30 N         141.0293  143.1907  165.6870 N.ar    1  UNL1       -0.2425
     31 C         140.9453  142.2630  166.8626 C.ar    1  UNL1        0.0997
     32 C         141.7965  141.0286  166.9064 C.ar    1  UNL1        0.0602
     33 C         142.7317  140.7220  165.7744 C.ar    1  UNL1       -0.0001
     34 C         142.8157  141.6498  164.5987 C.ar    1  UNL1        0.0979
     35 N         143.7509  141.3432  163.4667 N.ar    1  UNL1       -0.2105
     36 C         141.7124  140.1009  168.0820 C.3     1  UNL1        0.3422
     37 F         142.9443  139.7844  168.8772 F       1  UNL1       -0.1932
     38 F         140.3965  139.4896  168.4625 F       1  UNL1       -0.1932
     39 C         144.3480  142.2303  159.7445 C.3     1  UNL1        0.2542
     40 O         144.7701  141.9643  161.1590 O.3     1  UNL1       -0.4561
@<TRIPOS>BOND
     1    39    40    1
     2    40    26    1
     3    26    27   ar
     4    27    28   ar
     5    28    29   ar
     6    29    30   ar
     7    30    31   ar
     8    31    32   ar
     9    32    36    1
    10    36    37    1
    11    36    38    1
    12    32    33   ar
    13    33    25    1
    14    25    24    1
    15    24     1    1
    16     1     2    1
    17     2     3    1
    18     3     4    1
    19     4     9    1
    20     9    11    1
    21    11    12    1
    22    12    13   ar
    23    13    14   ar
    24    14    15   ar
    25    15    16   ar
    26    16    17   ar
    27    16    18    1
    28    18    19   am
    29    19    20    2
    30    19    21    1
    31    21    22    1
    32     4     5    1
    33     5     6    1
    34     4     7    1
    35     7     8    1
    36    33    34   ar
    37    34    35   ar
    38    35    26   ar
    39    34    29   ar
    40     6     1    1
    41     8     1    1
    42    17    12   ar
    43    22    15    1
    44     9    10    1
    45    18    23    1
@<TRIPOS>MOLECULE
*****
 40 45 0 0 0
SMALL
GASTEIGER

@<TRIPOS>ATOM
      1 C         139.4662  137.9655  164.6343 C.3     1  UNL1        0.0932
      2 C         138.9970  137.9883  163.2097 C.3     1  UNL1        0.0286
      3 C         139.9753  137.7674  162.0943 C.3     1  UNL1        0.0193
      4 C         141.4227  137.5236  162.4035 C.3     1  UNL1        0.0700
      5 C         141.8919  137.5007  163.8280 C.3     1  UNL1        0.0193
      6 C         140.9135  137.7217  164.9435 C.3     1  UNL1        0.0286
      7 C         140.9240  137.6394  163.0482 C.3     1  UNL1        0.1562
      8 O         140.0394  137.8392  164.0569 O.3     1  UNL1       -0.3572
      9 N         142.4010  137.3026  161.2881 N.3     1  UNL1       -0.2926
     10 H         141.9122  137.5217  160.4200 H       1  UNL1        0.1236
     11 C         143.6929  138.0644  161.2616 C.3     1  UNL1        0.1152
     12 C         143.6865  139.5571  161.4093 C.ar    1  UNL1        0.0765
     13 C         143.3463  140.4256  160.2345 C.ar    1  UNL1        0.0193
     14 C         143.3399  141.9182  160.3822 C.ar    1  UNL1        0.0411
     15 C         143.6739  142.5425  161.7046 C.ar    1  UNL1        0.1708
     16 C         144.0141  141.6741  162.8793 C.ar    1  UNL1        0.1682
     17 N         144.0205  140.1813  162.7317 N.ar    1  UNL1       -0.2304
     18 N         144.3481  142.2984  164.2017 N.am    1  UNL1       -0.2639
     19 C         144.3418  143.7910  164.3494 C.2     1  UNL1        0.2718
     20 O         144.6757  144.4153  165.6718 O.2     1  UNL1       -0.2707
     21 C         144.0015  144.6595  163.1747 C.3     1  UNL1        0.2898
     22 O         143.6675  144.0353  161.8522 O.3     1  UNL1       -0.4628
     23 H         144.5714  141.7284  164.9728 H       1  UNL1        0.1565
     24 C         138.4879  138.1864  165.7497 C.3     1  UNL1        0.0319
     25 C         138.1139  139.5817  166.1540 C.3     1  UNL1        0.0302
     26 C         138.7672  142.1046  162.4855 C.ar    1  UNL1        0.2250
     27 C         139.8059  143.1867  162.4947 C.ar    1  UNL1        0.0593
     28 C         140.6269  143.4278  163.7267 C.ar    1  UNL1        0.0254
     29 C         140.4092  142.5869  164.9495 C.ar    1  UNL1        0.0988
     30 N         141.2301  142.8280  166.1815 N.ar    1  UNL1       -0.2425
     31 C         141.0124  141.9870  167.4043 C.ar    1  UNL1        0.0997
     32 C         139.9736  140.9049  167.3952 C.ar    1  UNL1        0.0602
     33 C         139.1526  140.6638  166.1632 C.ar    1  UNL1       -0.0001
     34 C         139.3704  141.5048  164.9403 C.ar    1  UNL1        0.0979
     35 N         138.5495  141.2637  163.7083 N.ar    1  UNL1       -0.2105
     36 C         139.7559  140.0639  168.6180 C.3     1  UNL1        0.3422
     37 F         140.9174  139.3755  169.2714 F       1  UNL1       -0.1932
     38 F         138.3765  139.9113  169.1875 F       1  UNL1       -0.1932
     39 C         137.7566  140.4670  160.7400 C.3     1  UNL1        0.2542
     40 O         137.9462  141.8635  161.2535 O.3     1  UNL1       -0.4561
@<TRIPOS>BOND
     1    39    40    1
     2    40    26    1
     3    26    27   ar
     4    27    28   ar
     5    28    29   ar
     6    29    30   ar
     7    30    31   ar
     8    31    32   ar
     9    32    36    1
    10    36    37    1
    11    36    38    1
    12    32    33   ar
    13    33    25    1
    14    25    24    1
    15    24     1    1
    16     1     2    1
    17     2     3    1
    18     3     4    1
    19     4     9    1
    20     9    11    1
    21    11    12    1
    22    12    13   ar
    23    13    14   ar
    24    14    15   ar
    25    15    16   ar
    26    16    17   ar
    27    16    18    1
    28    18    19   am
    29    19    20    2
    30    19    21    1
    31    21    22    1
    32     4     5    1
    33     5     6    1
    34     4     7    1
    35     7     8    1
    36    33    34   ar
    37    34    35   ar
    38    35    26   ar
    39    34    29   ar
    40     6     1    1
    41     8     1    1
    42    17    12   ar
    43    22    15    1
    44     9    10    1
    45    18    23    1
@<TRIPOS>MOLECULE
*****
 40 45 0 0 0
SMALL
GASTEIGER

@<TRIPOS>ATOM
      1 C         141.8834  138.0098  164.0566 C.3     1  UNL1        0.0932
      2 C         142.4138  138.1487  162.6604 C.3     1  UNL1        0.0286
      3 C         143.6446  138.9667  162.4036 C.3     1  UNL1        0.0193
      4 C         144.3452  139.6457  163.5430 C.3     1  UNL1        0.0700
      5 C         143.8148  139.5067  164.9392 C.3     1  UNL1        0.0193
      6 C         142.5839  138.6888  165.1960 C.3     1  UNL1        0.0286
      7 C         143.6741  139.2080  163.7330 C.3     1  UNL1        0.1562
      8 O         142.5611  138.4684  163.9652 O.3     1  UNL1       -0.3572
      9 N         145.5760  140.4636  163.2862 N.3     1  UNL1       -0.2926
     10 H         145.7910  140.3685  162.2936 H       1  UNL1        0.1236
     11 C         145.5775  141.9324  163.5907 C.3     1  UNL1        0.1152
     12 C         144.3405  142.7480  163.3573 C.ar    1  UNL1        0.0765
     13 C         143.4904  143.1704  164.5189 C.ar    1  UNL1        0.0193
     14 C         142.2533  143.9860  164.2855 C.ar    1  UNL1        0.0411
     15 C         141.8663  144.3792  162.8907 C.ar    1  UNL1        0.1708
     16 C         142.7163  143.9569  161.7292 C.ar    1  UNL1        0.1682
     17 N         143.9534  143.1413  161.9625 N.ar    1  UNL1       -0.2304
     18 N         142.3292  144.3502  160.3344 N.am    1  UNL1       -0.2639
     19 C         141.0922  145.1657  160.1010 C.2     1  UNL1        0.2718
     20 O         140.7052  145.5590  158.7062 O.2     1  UNL1       -0.2707
     21 C         140.2421  145.5881  161.2626 C.3     1  UNL1        0.2898
     22 O         140.6292  145.1949  162.6574 O.3     1  UNL1       -0.4628
     23 H         142.8871  144.0730  159.5721 H       1  UNL1        0.1565
     24 C         140.6526  137.1919  164.3135 C.3     1  UNL1        0.0319
     25 C         139.2947  137.8019  164.1290 C.3     1  UNL1        0.0302
     26 C         139.3539  139.7514  160.0736 C.ar    1  UNL1        0.2250
     27 C         139.2102  141.2397  159.9548 C.ar    1  UNL1        0.0593
     28 C         139.0467  142.0782  161.1878 C.ar    1  UNL1        0.0254
     29 C         139.0270  141.4284  162.5395 C.ar    1  UNL1        0.0988
     30 N         138.8635  142.2670  163.7725 N.ar    1  UNL1       -0.2425
     31 C         138.8438  141.6172  165.1242 C.ar    1  UNL1        0.0997
     32 C         138.9875  140.1287  165.2431 C.ar    1  UNL1        0.0602
     33 C         139.1510  139.2902  164.0102 C.ar    1  UNL1       -0.0001
     34 C         139.1707  139.9401  162.6584 C.ar    1  UNL1        0.0979
     35 N         139.3342  139.1016  161.4254 N.ar    1  UNL1       -0.2105
     36 C         138.9678  139.4789  166.5949 C.3     1  UNL1        0.3422
     37 F         137.7310  138.7767  167.0715 F       1  UNL1       -0.1932
     38 F         140.1849  139.5314  167.4701 F       1  UNL1       -0.1932
     39 C         139.2793  139.5146  157.4875 C.3     1  UNL1        0.2542
     40 O         139.5174  138.9129  158.8407 O.3     1  UNL1       -0.4561
@<TRIPOS>BOND
     1    39    40    1
     2    40    26    1
     3    26    27   ar
     4    27    28   ar
     5    28    29   ar
     6    29    30   ar
     7    30    31   ar
     8    31    32   ar
     9    32    36    1
    10    36    37    1
    11    36    38    1
    12    32    33   ar
    13    33    25    1
    14    25    24    1
    15    24     1    1
    16     1     2    1
    17     2     3    1
    18     3     4    1
    19     4     9    1
    20     9    11    1
    21    11    12    1
    22    12    13   ar
    23    13    14   ar
    24    14    15   ar
    25    15    16   ar
    26    16    17   ar
    27    16    18    1
    28    18    19   am
    29    19    20    2
    30    19    21    1
    31    21    22    1
    32     4     5    1
    33     5     6    1
    34     4     7    1
    35     7     8    1
    36    33    34   ar
    37    34    35   ar
    38    35    26   ar
    39    34    29   ar
    40     6     1    1
    41     8     1    1
    42    17    12   ar
    43    22    15    1
    44     9    10    1
    45    18    23    1
@<TRIPOS>MOLECULE
*****
 40 45 0 0 0
SMALL
GASTEIGER

@<TRIPOS>ATOM
      1 C         138.2298  139.9473  164.3953 C.3     1  UNL1        0.0932
      2 C         138.5957  138.7973  163.5044 C.3     1  UNL1        0.0286
      3 C         138.4726  138.9332  162.0157 C.3     1  UNL1        0.0193
      4 C         137.9836  140.2191  161.4177 C.3     1  UNL1        0.0700
      5 C         137.6178  141.3691  162.3086 C.3     1  UNL1        0.0193
      6 C         137.7409  141.2331  163.7974 C.3     1  UNL1        0.0286
      7 C         138.0345  140.1919  162.2391 C.3     1  UNL1        0.1562
      8 O         138.1458  140.0691  163.5853 O.3     1  UNL1       -0.3572
      9 N         137.8606  140.3550  159.9290 N.3     1  UNL1       -0.2926
     10 H         137.0709  140.9765  159.7544 H       1  UNL1        0.1236
     11 C         139.0126  140.8825  159.1263 C.3     1  UNL1        0.1152
     12 C         140.0376  141.7645  159.7754 C.ar    1  UNL1        0.0765
     13 C         139.8006  143.2423  159.8750 C.ar    1  UNL1        0.0193
     14 C         140.8256  144.1243  160.5242 C.ar    1  UNL1        0.0411
     15 C         142.0877  143.5284  161.0738 C.ar    1  UNL1        0.1708
     16 C         142.3247  142.0507  160.9743 C.ar    1  UNL1        0.1682
     17 N         141.2997  141.1686  160.3251 N.ar    1  UNL1       -0.2304
     18 N         143.5868  141.4548  161.5240 N.am    1  UNL1       -0.2639
     19 C         144.6118  142.3368  162.1732 C.2     1  UNL1        0.2718
     20 O         145.8739  141.7409  162.7229 O.2     1  UNL1       -0.2707
     21 C         144.3748  143.8146  162.2727 C.3     1  UNL1        0.2898
     22 O         143.1127  144.4105  161.7230 O.3     1  UNL1       -0.4628
     23 H         143.7424  140.4849  161.4587 H       1  UNL1        0.1565
     24 C         138.3529  139.8114  165.8840 C.3     1  UNL1        0.0319
     25 C         139.2668  140.7236  166.6474 C.3     1  UNL1        0.0302
     26 C         142.7721  139.0675  164.3627 C.ar    1  UNL1        0.2250
     27 C         143.9496  138.5032  165.1010 C.ar    1  UNL1        0.0593
     28 C         143.9586  138.4911  166.6009 C.ar    1  UNL1        0.0254
     29 C         142.7902  139.0431  167.3625 C.ar    1  UNL1        0.0988
     30 N         142.7993  139.0309  168.8624 N.ar    1  UNL1       -0.2425
     31 C         141.6309  139.5829  169.6240 C.ar    1  UNL1        0.0997
     32 C         140.4533  140.1472  168.8857 C.ar    1  UNL1        0.0602
     33 C         140.4443  140.1594  167.3857 C.ar    1  UNL1       -0.0001
     34 C         141.6128  139.6073  166.6242 C.ar    1  UNL1        0.0979
     35 N         141.6037  139.6195  165.1242 N.ar    1  UNL1       -0.2105
     36 C         139.2849  140.6992  169.6472 C.3     1  UNL1        0.3422
     37 F         139.3431  142.0903  170.2053 F       1  UNL1       -0.1932
     38 F         138.0583  139.8601  169.8508 F       1  UNL1       -0.1932
     39 C         142.1062  137.9624  162.1076 C.3     1  UNL1        0.2542
     40 O         142.7631  139.0797  162.8627 O.3     1  UNL1       -0.4561
@<TRIPOS>BOND
     1    39    40    1
     2    40    26    1
     3    26    27   ar
     4    27    28   ar
     5    28    29   ar
     6    29    30   ar
     7    30    31   ar
     8    31    32   ar
     9    32    36    1
    10    36    37    1
    11    36    38    1
    12    32    33   ar
    13    33    25    1
    14    25    24    1
    15    24     1    1
    16     1     2    1
    17     2     3    1
    18     3     4    1
    19     4     9    1
    20     9    11    1
    21    11    12    1
    22    12    13   ar
    23    13    14   ar
    24    14    15   ar
    25    15    16   ar
    26    16    17   ar
    27    16    18    1
    28    18    19   am
    29    19    20    2
    30    19    21    1
    31    21    22    1
    32     4     5    1
    33     5     6    1
    34     4     7    1
    35     7     8    1
    36    33    34   ar
    37    34    35   ar
    38    35    26   ar
    39    34    29   ar
    40     6     1    1
    41     8     1    1
    42    17    12   ar
    43    22    15    1
    44     9    10    1
    45    18    23    1
@<TRIPOS>MOLECULE
*****
 40 45 0 0 0
SMALL
GASTEIGER

@<TRIPOS>ATOM
      1 C         140.3809  143.9220  164.0530 C.3     1  UNL1        0.0932
      2 C         140.4758  143.3702  165.4446 C.3     1  UNL1        0.0286
      3 C         139.6740  142.1621  165.8287 C.3     1  UNL1        0.0193
      4 C         138.7772  141.5058  164.8211 C.3     1  UNL1        0.0700
      5 C         138.6823  142.0576  163.4296 C.3     1  UNL1        0.0193
      6 C         139.4841  143.2658  163.0455 C.3     1  UNL1        0.0286
      7 C         139.1973  142.1656  164.5641 C.3     1  UNL1        0.1562
      8 O         139.9223  143.2581  164.2168 O.3     1  UNL1       -0.3572
      9 N         137.9754  140.2977  165.2052 N.3     1  UNL1       -0.2926
     10 H         137.1458  140.2940  164.6118 H       1  UNL1        0.1236
     11 C         138.5847  138.9306  165.1061 C.3     1  UNL1        0.1152
     12 C         139.9351  138.7551  164.4770 C.ar    1  UNL1        0.0765
     13 C         141.1658  138.7413  165.3345 C.ar    1  UNL1        0.0193
     14 C         142.5162  138.5659  164.7054 C.ar    1  UNL1        0.0411
     15 C         142.6359  138.4041  163.2190 C.ar    1  UNL1        0.1708
     16 C         141.4052  138.4178  162.3616 C.ar    1  UNL1        0.1682
     17 N         140.0548  138.5933  162.9906 N.ar    1  UNL1       -0.2304
     18 N         141.5249  138.2561  160.8751 N.am    1  UNL1       -0.2639
     19 C         142.8752  138.0806  160.2461 C.2     1  UNL1        0.2718
     20 O         142.9949  137.9189  158.7597 O.2     1  UNL1       -0.2707
     21 C         144.1060  138.0669  161.1036 C.3     1  UNL1        0.2898
     22 O         143.9863  138.2286  162.5900 O.3     1  UNL1       -0.4628
     23 H         140.7171  138.2651  160.3124 H       1  UNL1        0.1565
     24 C         141.1827  145.1302  163.6690 C.3     1  UNL1        0.0319
     25 C         142.6815  145.0689  163.6760 C.3     1  UNL1        0.0302
     26 C         142.3017  144.0376  159.3123 C.ar    1  UNL1        0.2250
     27 C         143.0056  142.8326  158.7624 C.ar    1  UNL1        0.0593
     28 C         143.8362  141.9714  159.6671 C.ar    1  UNL1        0.0254
     29 C         143.9628  142.3151  161.1216 C.ar    1  UNL1        0.0988
     30 N         144.7934  141.4539  162.0263 N.ar    1  UNL1       -0.2425
     31 C         144.9200  141.7977  163.4808 C.ar    1  UNL1        0.0997
     32 C         144.2160  143.0027  164.0308 C.ar    1  UNL1        0.0602
     33 C         143.3854  143.8639  163.1261 C.ar    1  UNL1       -0.0001
     34 C         143.2588  143.5201  161.6715 C.ar    1  UNL1        0.0979
     35 N         142.4283  144.3814  160.7668 N.ar    1  UNL1       -0.2105
     36 C         144.3426  143.3464  165.4853 C.3     1  UNL1        0.3422
     37 F         145.2034  144.4986  165.9116 F       1  UNL1       -0.1932
     38 F         143.6085  142.5380  166.5138 F       1  UNL1       -0.1932
     39 C         142.1351  145.8864  157.4946 C.3     1  UNL1        0.2542
     40 O         141.4711  144.8988  158.4076 O.3     1  UNL1       -0.4561
@<TRIPOS>BOND
     1    39    40    1
     2    40    26    1
     3    26    27   ar
     4    27    28   ar
     5    28    29   ar
     6    29    30   ar
     7    30    31   ar
     8    31    32   ar
     9    32    36    1
    10    36    37    1
    11    36    38    1
    12    32    33   ar
    13    33    25    1
    14    25    24    1
    15    24     1    1
    16     1     2    1
    17     2     3    1
    18     3     4    1
    19     4     9    1
    20     9    11    1
    21    11    12    1
    22    12    13   ar
    23    13    14   ar
    24    14    15   ar
    25    15    16   ar
    26    16    17   ar
    27    16    18    1
    28    18    19   am
    29    19    20    2
    30    19    21    1
    31    21    22    1
    32     4     5    1
    33     5     6    1
    34     4     7    1
    35     7     8    1
    36    33    34   ar
    37    34    35   ar
    38    35    26   ar
    39    34    29   ar
    40     6     1    1
    41     8     1    1
    42    17    12   ar
    43    22    15    1
    44     9    10    1
    45    18    23    1
