@<TRIPOS>MOLECULE
*****
 30 34 0 0 0
SMALL
GASTEIGER

@<TRIPOS>ATOM
      1 C         139.9668  139.9961  167.3913 C.ar    1  UNL1        0.0041
      2 C         138.6187  139.4190  167.7067 C.ar    1  UNL1        0.0002
      3 C         137.9218  138.5492  166.7028 C.ar    1  UNL1        0.0015
      4 C         138.5730  138.2565  165.3836 C.ar    1  UNL1        0.0192
      5 C         139.9212  138.8336  165.0683 C.ar    1  UNL1        0.0856
      6 N         140.5724  138.5409  163.7491 N.ar    1  UNL1       -0.2260
      7 C         141.9205  139.1180  163.4338 C.ar    1  UNL1        0.1712
      8 N         142.6175  139.9879  164.4377 N.ar    1  UNL1       -0.2115
      9 C         141.9662  140.2806  165.7568 C.ar    1  UNL1        0.1318
     10 C         140.6180  139.7034  166.0721 C.ar    1  UNL1        0.0491
     11 C         142.0577  142.6056  170.4029 C.ar    1  UNL1        0.0000
     12 C         141.0949  143.2118  169.4254 C.ar    1  UNL1        0.0000
     13 C         140.3979  142.3420  168.4215 C.ar    1  UNL1        0.0000
     14 C         140.6638  140.8660  168.3952 C.ar    1  UNL1        0.0001
     15 C         141.6266  140.2597  169.3727 C.ar    1  UNL1        0.0000
     16 C         142.3235  141.1295  170.3765 C.ar    1  UNL1        0.0000
     17 C         142.5717  138.8253  162.1146 C.ar    1  UNL1        0.0858
     18 C         143.9276  139.2950  161.6772 C.ar    1  UNL1        0.1090
     19 N         144.1752  138.7715  160.2934 N.ar    1  UNL1       -0.2346
     20 C         142.9726  137.9783  159.8757 C.ar    1  UNL1        0.1346
     21 S         141.9816  138.0116  161.0013 S.2     1  UNL1       -0.0614
     22 N         142.6631  141.1504  166.7607 N.pl3   1  UNL1       -0.3131
     23 H         142.5774  140.9581  167.7224 H       1  UNL1        0.1485
     24 C         143.4907  142.3133  166.2992 C.3     1  UNL1        0.1348
     25 C         142.9295  143.2853  165.3042 C.ar    1  UNL1        0.0788
     26 C         143.8533  144.0908  164.4395 C.ar    1  UNL1        0.0165
     27 C         143.2921  145.0628  163.4444 C.ar    1  UNL1        0.0029
     28 C         141.8071  145.2293  163.3140 C.ar    1  UNL1        0.0207
     29 C         140.8833  144.4238  164.1787 C.ar    1  UNL1        0.0985
     30 N         141.4445  143.4518  165.1738 N.ar    1  UNL1       -0.2464
@<TRIPOS>BOND
     1    11    12   ar
     2    12    13   ar
     3    13    14   ar
     4    14     1    1
     5     1     2   ar
     6     2     3   ar
     7     3     4   ar
     8     4     5   ar
     9     5     6   ar
    10     6     7   ar
    11     7    17    1
    12    17    18   ar
    13    18    19   ar
    14    19    20   ar
    15    20    21   ar
    16     7     8   ar
    17     8     9   ar
    18     9    22    1
    19    22    24    1
    20    24    25    1
    21    25    26   ar
    22    26    27   ar
    23    27    28   ar
    24    28    29   ar
    25    29    30   ar
    26     9    10   ar
    27    14    15   ar
    28    15    16   ar
    29    16    11   ar
    30    10     1   ar
    31    10     5   ar
    32    21    17   ar
    33    30    25   ar
    34    22    23    1
@<TRIPOS>MOLECULE
*****
 30 34 0 0 0
SMALL
GASTEIGER

@<TRIPOS>ATOM
      1 C         138.9728  140.3080  164.5419 C.ar    1  UNL1        0.0041
      2 C         138.4753  139.3218  165.5567 C.ar    1  UNL1        0.0002
      3 C         138.5895  137.8500  165.2908 C.ar    1  UNL1        0.0015
      4 C         139.2013  137.3645  164.0101 C.ar    1  UNL1        0.0192
      5 C         139.6987  138.3507  162.9954 C.ar    1  UNL1        0.0856
      6 N         140.3104  137.8652  161.7147 N.ar    1  UNL1       -0.2260
      7 C         140.8079  138.8515  160.7000 C.ar    1  UNL1        0.1712
      8 N         140.6937  140.3233  160.9658 N.ar    1  UNL1       -0.2115
      9 C         140.0820  140.8089  162.2465 C.ar    1  UNL1        0.1318
     10 C         139.5845  139.8225  163.2613 C.ar    1  UNL1        0.0491
     11 C         138.6301  144.7236  165.3395 C.ar    1  UNL1        0.0000
     12 C         139.7900  143.9495  165.8921 C.ar    1  UNL1        0.0000
     13 C         139.9042  142.4776  165.6262 C.ar    1  UNL1        0.0000
     14 C         138.8586  141.7799  164.8078 C.ar    1  UNL1        0.0001
     15 C         137.6987  142.5541  164.2552 C.ar    1  UNL1        0.0000
     16 C         137.5844  144.0258  164.5210 C.ar    1  UNL1        0.0000
     17 C         141.4196  138.3659  159.4193 C.ar    1  UNL1        0.0858
     18 C         142.7791  137.7498  159.2696 C.ar    1  UNL1        0.1090
     19 N         142.9789  137.4144  157.8212 N.ar    1  UNL1       -0.2346
     20 C         141.7430  137.8231  157.0759 C.ar    1  UNL1        0.1346
     21 S         140.7794  138.4112  158.0636 S.2     1  UNL1       -0.0614
     22 N         139.9677  142.2806  162.5124 N.pl3   1  UNL1       -0.3131
     23 H         139.1545  142.6433  162.9324 H       1  UNL1        0.1485
     24 C         141.0926  143.1999  162.1384 C.3     1  UNL1        0.1348
     25 C         142.2225  143.4312  163.0973 C.ar    1  UNL1        0.0788
     26 C         142.6098  144.8298  163.4767 C.ar    1  UNL1        0.0165
     27 C         143.7398  145.0612  164.4357 C.ar    1  UNL1        0.0029
     28 C         144.4826  143.8939  165.0152 C.ar    1  UNL1        0.0207
     29 C         144.0953  142.4953  164.6358 C.ar    1  UNL1        0.0985
     30 N         142.9653  142.2640  163.6768 N.ar    1  UNL1       -0.2464
@<TRIPOS>BOND
     1    11    12   ar
     2    12    13   ar
     3    13    14   ar
     4    14     1    1
     5     1     2   ar
     6     2     3   ar
     7     3     4   ar
     8     4     5   ar
     9     5     6   ar
    10     6     7   ar
    11     7    17    1
    12    17    18   ar
    13    18    19   ar
    14    19    20   ar
    15    20    21   ar
    16     7     8   ar
    17     8     9   ar
    18     9    22    1
    19    22    24    1
    20    24    25    1
    21    25    26   ar
    22    26    27   ar
    23    27    28   ar
    24    28    29   ar
    25    29    30   ar
    26     9    10   ar
    27    14    15   ar
    28    15    16   ar
    29    16    11   ar
    30    10     1   ar
    31    10     5   ar
    32    21    17   ar
    33    30    25   ar
    34    22    23    1
@<TRIPOS>MOLECULE
*****
 30 34 0 0 0
SMALL
GASTEIGER

@<TRIPOS>ATOM
      1 C         139.8779  140.6990  167.4911 C.ar    1  UNL1        0.0041
      2 C         139.0084  139.5994  168.0248 C.ar    1  UNL1        0.0002
      3 C         138.0323  138.9087  167.1192 C.ar    1  UNL1        0.0015
      4 C         137.9257  139.3176  165.6800 C.ar    1  UNL1        0.0192
      5 C         138.7952  140.4171  165.1463 C.ar    1  UNL1        0.0856
      6 N         138.6885  140.8259  163.7070 N.ar    1  UNL1       -0.2260
      7 C         139.5580  141.9255  163.1733 C.ar    1  UNL1        0.1712
      8 N         140.5343  142.6163  164.0788 N.ar    1  UNL1       -0.2115
      9 C         140.6409  142.2074  165.5181 C.ar    1  UNL1        0.1318
     10 C         139.7713  141.1078  166.0518 C.ar    1  UNL1        0.0491
     11 C         142.8065  142.7712  170.2076 C.ar    1  UNL1        0.0000
     12 C         141.4585  143.3786  169.9552 C.ar    1  UNL1        0.0000
     13 C         140.4823  142.6879  169.0496 C.ar    1  UNL1        0.0000
     14 C         140.8541  141.3897  168.3966 C.ar    1  UNL1        0.0001
     15 C         142.2022  140.7823  168.6491 C.ar    1  UNL1        0.0000
     16 C         143.1784  141.4730  169.5546 C.ar    1  UNL1        0.0000
     17 C         139.4514  142.3343  161.7340 C.ar    1  UNL1        0.0858
     18 C         138.1798  142.4920  160.9541 C.ar    1  UNL1        0.1090
     19 N         138.5402  142.9124  159.5600 N.ar    1  UNL1       -0.2346
     20 C         140.0345  143.0146  159.4783 C.ar    1  UNL1        0.1346
     21 S         140.5976  142.6573  160.8219 S.2     1  UNL1       -0.0614
     22 N         141.6170  142.8981  166.4236 N.pl3   1  UNL1       -0.3131
     23 H         141.3211  143.2374  167.2992 H       1  UNL1        0.1485
     24 C         143.0440  143.0719  165.9952 C.3     1  UNL1        0.1348
     25 C         143.7589  141.9535  165.2965 C.ar    1  UNL1        0.0788
     26 C         143.3657  140.5306  165.5619 C.ar    1  UNL1        0.0165
     27 C         144.0805  139.4121  164.8632 C.ar    1  UNL1        0.0029
     28 C         145.1885  139.7167  163.8991 C.ar    1  UNL1        0.0207
     29 C         145.5817  141.1398  163.6336 C.ar    1  UNL1        0.0985
     30 N         144.8669  142.2581  164.3323 N.ar    1  UNL1       -0.2464
@<TRIPOS>BOND
     1    11    12   ar
     2    12    13   ar
     3    13    14   ar
     4    14     1    1
     5     1     2   ar
     6     2     3   ar
     7     3     4   ar
     8     4     5   ar
     9     5     6   ar
    10     6     7   ar
    11     7    17    1
    12    17    18   ar
    13    18    19   ar
    14    19    20   ar
    15    20    21   ar
    16     7     8   ar
    17     8     9   ar
    18     9    22    1
    19    22    24    1
    20    24    25    1
    21    25    26   ar
    22    26    27   ar
    23    27    28   ar
    24    28    29   ar
    25    29    30   ar
    26     9    10   ar
    27    14    15   ar
    28    15    16   ar
    29    16    11   ar
    30    10     1   ar
    31    10     5   ar
    32    21    17   ar
    33    30    25   ar
    34    22    23    1
@<TRIPOS>MOLECULE
*****
 30 34 0 0 0
SMALL
GASTEIGER

@<TRIPOS>ATOM
      1 C         139.6128  140.2741  167.3417 C.ar    1  UNL1        0.0041
      2 C         138.6878  139.0972  167.2456 C.ar    1  UNL1        0.0002
      3 C         137.8549  138.8966  166.0144 C.ar    1  UNL1        0.0015
      4 C         137.9468  139.8729  164.8793 C.ar    1  UNL1        0.0192
      5 C         138.8718  141.0498  164.9754 C.ar    1  UNL1        0.0856
      6 N         138.9638  142.0261  163.8404 N.ar    1  UNL1       -0.2260
      7 C         139.8887  143.2030  163.9365 C.ar    1  UNL1        0.1712
      8 N         140.7218  143.4037  165.1677 N.ar    1  UNL1       -0.2115
      9 C         140.6298  142.4274  166.3028 C.ar    1  UNL1        0.1318
     10 C         139.7048  141.2504  166.2066 C.ar    1  UNL1        0.0491
     11 C         142.1118  140.8761  171.0353 C.ar    1  UNL1        0.0000
     12 C         142.5794  139.9439  169.9572 C.ar    1  UNL1        0.0000
     13 C         141.7463  139.7432  168.7260 C.ar    1  UNL1        0.0000
     14 C         140.4458  140.4748  168.5729 C.ar    1  UNL1        0.0001
     15 C         139.9783  141.4070  169.6510 C.ar    1  UNL1        0.0000
     16 C         140.8113  141.6077  170.8822 C.ar    1  UNL1        0.0000
     17 C         139.9807  144.1793  162.8014 C.ar    1  UNL1        0.0858
     18 C         139.0578  145.3363  162.5566 C.ar    1  UNL1        0.1090
     19 N         139.5185  146.0421  161.3157 N.ar    1  UNL1       -0.2346
     20 C         140.7260  145.3214  160.7937 C.ar    1  UNL1        0.1346
     21 S         141.0117  144.1702  161.7119 S.2     1  UNL1       -0.0614
     22 N         141.4628  142.6280  167.5340 N.pl3   1  UNL1       -0.3131
     23 H         141.0271  142.7626  168.4065 H       1  UNL1        0.1485
     24 C         142.9596  142.6235  167.4358 C.3     1  UNL1        0.1348
     25 C         143.6277  142.1335  166.1854 C.ar    1  UNL1        0.0788
     26 C         144.4315  143.0801  165.3442 C.ar    1  UNL1        0.0165
     27 C         145.0997  142.5901  164.0938 C.ar    1  UNL1        0.0029
     28 C         144.9640  141.1534  163.6847 C.ar    1  UNL1        0.0207
     29 C         144.1601  140.2067  164.5259 C.ar    1  UNL1        0.0985
     30 N         143.4920  140.6967  165.7763 N.ar    1  UNL1       -0.2464
@<TRIPOS>BOND
     1    11    12   ar
     2    12    13   ar
     3    13    14   ar
     4    14     1    1
     5     1     2   ar
     6     2     3   ar
     7     3     4   ar
     8     4     5   ar
     9     5     6   ar
    10     6     7   ar
    11     7    17    1
    12    17    18   ar
    13    18    19   ar
    14    19    20   ar
    15    20    21   ar
    16     7     8   ar
    17     8     9   ar
    18     9    22    1
    19    22    24    1
    20    24    25    1
    21    25    26   ar
    22    26    27   ar
    23    27    28   ar
    24    28    29   ar
    25    29    30   ar
    26     9    10   ar
    27    14    15   ar
    28    15    16   ar
    29    16    11   ar
    30    10     1   ar
    31    10     5   ar
    32    21    17   ar
    33    30    25   ar
    34    22    23    1
@<TRIPOS>MOLECULE
*****
 30 34 0 0 0
SMALL
GASTEIGER

@<TRIPOS>ATOM
      1 C         140.2664  143.7447  164.2387 C.ar    1  UNL1        0.0041
      2 C         139.2813  144.4146  165.1500 C.ar    1  UNL1        0.0002
      3 C         137.8447  144.5419  164.7378 C.ar    1  UNL1        0.0015
      4 C         137.3933  143.9993  163.4143 C.ar    1  UNL1        0.0192
      5 C         138.3784  143.3294  162.5029 C.ar    1  UNL1        0.0856
      6 N         137.9270  142.7868  161.1794 N.ar    1  UNL1       -0.2260
      7 C         138.9122  142.1169  160.2680 C.ar    1  UNL1        0.1712
      8 N         140.3489  141.9895  160.6802 N.ar    1  UNL1       -0.2115
      9 C         140.8003  142.5321  162.0038 C.ar    1  UNL1        0.1318
     10 C         139.8150  143.2021  162.9151 C.ar    1  UNL1        0.0491
     11 C         144.5764  143.3627  165.4752 C.ar    1  UNL1        0.0000
     12 C         143.5579  142.3924  165.9960 C.ar    1  UNL1        0.0000
     13 C         142.1213  142.5197  165.5838 C.ar    1  UNL1        0.0000
     14 C         141.7031  143.6173  164.6509 C.ar    1  UNL1        0.0001
     15 C         142.7216  144.5876  164.1301 C.ar    1  UNL1        0.0000
     16 C         144.1582  144.4604  164.5423 C.ar    1  UNL1        0.0000
     17 C         138.4608  141.5743  158.9445 C.ar    1  UNL1        0.0858
     18 C         138.4837  140.1333  158.5281 C.ar    1  UNL1        0.1090
     19 N         137.9442  140.0459  157.1312 N.ar    1  UNL1       -0.2346
     20 C         137.5879  141.4327  156.6842 C.ar    1  UNL1        0.1346
     21 S         137.9072  142.3773  157.8048 S.2     1  UNL1       -0.0614
     22 N         142.2369  142.4048  162.4160 N.pl3   1  UNL1       -0.3131
     23 H         142.7027  143.1719  162.8208 H       1  UNL1        0.1485
     24 C         142.9638  141.1087  162.2114 C.3     1  UNL1        0.1348
     25 C         142.3902  139.8334  162.7539 C.ar    1  UNL1        0.0788
     26 C         142.7321  139.3894  164.1452 C.ar    1  UNL1        0.0165
     27 C         142.1585  138.1140  164.6878 C.ar    1  UNL1        0.0029
     28 C         141.2431  137.2825  163.8389 C.ar    1  UNL1        0.0207
     29 C         140.9012  137.7265  162.4475 C.ar    1  UNL1        0.0985
     30 N         141.4748  139.0019  161.9050 N.ar    1  UNL1       -0.2464
@<TRIPOS>BOND
     1    11    12   ar
     2    12    13   ar
     3    13    14   ar
     4    14     1    1
     5     1     2   ar
     6     2     3   ar
     7     3     4   ar
     8     4     5   ar
     9     5     6   ar
    10     6     7   ar
    11     7    17    1
    12    17    18   ar
    13    18    19   ar
    14    19    20   ar
    15    20    21   ar
    16     7     8   ar
    17     8     9   ar
    18     9    22    1
    19    22    24    1
    20    24    25    1
    21    25    26   ar
    22    26    27   ar
    23    27    28   ar
    24    28    29   ar
    25    29    30   ar
    26     9    10   ar
    27    14    15   ar
    28    15    16   ar
    29    16    11   ar
    30    10     1   ar
    31    10     5   ar
    32    21    17   ar
    33    30    25   ar
    34    22    23    1
@<TRIPOS>MOLECULE
*****
 30 34 0 0 0
SMALL
GASTEIGER

@<TRIPOS>ATOM
      1 C         138.7477  141.8891  163.0841 C.ar    1  UNL1        0.0041
      2 C         137.8364  142.9726  162.5889 C.ar    1  UNL1        0.0002
      3 C         137.6450  144.2202  163.3993 C.ar    1  UNL1        0.0015
      4 C         138.3651  144.3843  164.7049 C.ar    1  UNL1        0.0192
      5 C         139.2764  143.3007  165.2001 C.ar    1  UNL1        0.0856
      6 N         139.9964  143.4648  166.5057 N.ar    1  UNL1       -0.2260
      7 C         140.9078  142.3812  167.0009 C.ar    1  UNL1        0.1712
      8 N         141.0992  141.1335  166.1905 N.ar    1  UNL1       -0.2115
      9 C         140.3792  140.9695  164.8849 C.ar    1  UNL1        0.1318
     10 C         139.4678  142.0531  164.3897 C.ar    1  UNL1        0.0491
     11 C         139.3218  138.1460  160.6529 C.ar    1  UNL1        0.0000
     12 C         140.1692  139.3537  160.3818 C.ar    1  UNL1        0.0000
     13 C         139.9778  140.6014  161.1923 C.ar    1  UNL1        0.0000
     14 C         138.9391  140.6414  162.2736 C.ar    1  UNL1        0.0001
     15 C         138.0917  139.4337  162.5447 C.ar    1  UNL1        0.0000
     16 C         138.2830  138.1861  161.7343 C.ar    1  UNL1        0.0000
     17 C         141.6278  142.5453  168.3065 C.ar    1  UNL1        0.0858
     18 C         141.0540  143.1319  169.5623 C.ar    1  UNL1        0.1090
     19 N         142.1197  143.1007  170.6175 N.ar    1  UNL1       -0.2346
     20 C         143.3520  142.4948  170.0140 C.ar    1  UNL1        0.1346
     21 S         143.0480  142.1516  168.5858 S.2     1  UNL1       -0.0614
     22 N         140.5705  139.7219  164.0745 N.pl3   1  UNL1       -0.3131
     23 H         139.8001  139.3020  163.6279 H       1  UNL1        0.1485
     24 C         141.9356  139.1139  163.9445 C.3     1  UNL1        0.1348
     25 C         143.1047  139.9709  163.5587 C.ar    1  UNL1        0.0788
     26 C         144.1829  140.2632  164.5596 C.ar    1  UNL1        0.0165
     27 C         145.3520  141.1203  164.1739 C.ar    1  UNL1        0.0029
     28 C         145.4428  141.6849  162.7872 C.ar    1  UNL1        0.0207
     29 C         144.3645  141.3925  161.7862 C.ar    1  UNL1        0.0985
     30 N         143.1955  140.5355  162.1720 N.ar    1  UNL1       -0.2464
@<TRIPOS>BOND
     1    11    12   ar
     2    12    13   ar
     3    13    14   ar
     4    14     1    1
     5     1     2   ar
     6     2     3   ar
     7     3     4   ar
     8     4     5   ar
     9     5     6   ar
    10     6     7   ar
    11     7    17    1
    12    17    18   ar
    13    18    19   ar
    14    19    20   ar
    15    20    21   ar
    16     7     8   ar
    17     8     9   ar
    18     9    22    1
    19    22    24    1
    20    24    25    1
    21    25    26   ar
    22    26    27   ar
    23    27    28   ar
    24    28    29   ar
    25    29    30   ar
    26     9    10   ar
    27    14    15   ar
    28    15    16   ar
    29    16    11   ar
    30    10     1   ar
    31    10     5   ar
    32    21    17   ar
    33    30    25   ar
    34    22    23    1
@<TRIPOS>MOLECULE
*****
 30 34 0 0 0
SMALL
GASTEIGER

@<TRIPOS>ATOM
      1 C         142.9717  141.7485  166.3160 C.ar    1  UNL1        0.0041
      2 C         143.7724  142.9888  166.5810 C.ar    1  UNL1        0.0002
      3 C         144.5912  143.6017  165.4838 C.ar    1  UNL1        0.0015
      4 C         144.6093  142.9741  164.1215 C.ar    1  UNL1        0.0192
      5 C         143.8086  141.7337  163.8564 C.ar    1  UNL1        0.0856
      6 N         143.8267  141.1062  162.4941 N.ar    1  UNL1       -0.2260
      7 C         143.0260  139.8658  162.2291 C.ar    1  UNL1        0.1712
      8 N         142.2071  139.2529  163.3263 N.ar    1  UNL1       -0.2115
      9 C         142.1890  139.8805  164.6886 C.ar    1  UNL1        0.1318
     10 C         142.9898  141.1209  164.9537 C.ar    1  UNL1        0.0491
     11 C         140.5152  139.9099  169.6077 C.ar    1  UNL1        0.0000
     12 C         141.9041  139.4105  169.3400 C.ar    1  UNL1        0.0000
     13 C         142.7229  140.0234  168.2427 C.ar    1  UNL1        0.0000
     14 C         142.1529  141.1356  167.4132 C.ar    1  UNL1        0.0001
     15 C         140.7640  141.6349  167.6809 C.ar    1  UNL1        0.0000
     16 C         139.9451  141.0221  168.7781 C.ar    1  UNL1        0.0000
     17 C         143.0441  139.2382  160.8668 C.ar    1  UNL1        0.0858
     18 C         143.7019  139.8050  159.6436 C.ar    1  UNL1        0.1090
     19 N         143.4719  138.8508  158.5093 N.ar    1  UNL1       -0.2346
     20 C         142.6719  137.6943  159.0314 C.ar    1  UNL1        0.1346
     21 S         142.4075  137.9338  160.4884 S.2     1  UNL1       -0.0614
     22 N         141.3703  139.2676  165.7859 N.pl3   1  UNL1       -0.3131
     23 H         141.7713  139.1126  166.6715 H       1  UNL1        0.1485
     24 C         139.9403  138.8910  165.5338 C.3     1  UNL1        0.1348
     25 C         139.0872  139.7412  164.6398 C.ar    1  UNL1        0.0788
     26 C         138.6712  141.1125  165.0827 C.ar    1  UNL1        0.0165
     27 C         137.8180  141.9628  164.1886 C.ar    1  UNL1        0.0029
     28 C         137.3809  141.4416  162.8517 C.ar    1  UNL1        0.0207
     29 C         137.7970  140.0702  162.4088 C.ar    1  UNL1        0.0985
     30 N         138.6501  139.2200  163.3029 N.ar    1  UNL1       -0.2464
@<TRIPOS>BOND
     1    11    12   ar
     2    12    13   ar
     3    13    14   ar
     4    14     1    1
     5     1     2   ar
     6     2     3   ar
     7     3     4   ar
     8     4     5   ar
     9     5     6   ar
    10     6     7   ar
    11     7    17    1
    12    17    18   ar
    13    18    19   ar
    14    19    20   ar
    15    20    21   ar
    16     7     8   ar
    17     8     9   ar
    18     9    22    1
    19    22    24    1
    20    24    25    1
    21    25    26   ar
    22    26    27   ar
    23    27    28   ar
    24    28    29   ar
    25    29    30   ar
    26     9    10   ar
    27    14    15   ar
    28    15    16   ar
    29    16    11   ar
    30    10     1   ar
    31    10     5   ar
    32    21    17   ar
    33    30    25   ar
    34    22    23    1
@<TRIPOS>MOLECULE
*****
 30 34 0 0 0
SMALL
GASTEIGER

@<TRIPOS>ATOM
      1 C         142.3931  142.4665  166.4388 C.ar    1  UNL1        0.0041
      2 C         143.8090  142.9162  166.6459 C.ar    1  UNL1        0.0002
      3 C         144.5886  143.4904  165.5003 C.ar    1  UNL1        0.0015
      4 C         143.9523  143.6148  164.1476 C.ar    1  UNL1        0.0192
      5 C         142.5364  143.1651  163.9406 C.ar    1  UNL1        0.0856
      6 N         141.9002  143.2896  162.5879 N.ar    1  UNL1       -0.2260
      7 C         140.4843  142.8399  162.3808 C.ar    1  UNL1        0.1712
      8 N         139.7045  142.2656  163.5265 N.ar    1  UNL1       -0.2115
      9 C         140.3408  142.1412  164.8791 C.ar    1  UNL1        0.1318
     10 C         141.7568  142.5909  165.0862 C.ar    1  UNL1        0.0491
     11 C         140.0540  140.7438  169.8756 C.ar    1  UNL1        0.0000
     12 C         139.8904  142.1884  169.5064 C.ar    1  UNL1        0.0000
     13 C         140.6701  142.7626  168.3607 C.ar    1  UNL1        0.0000
     14 C         141.6133  141.8922  167.5844 C.ar    1  UNL1        0.0001
     15 C         141.7770  140.4476  167.9537 C.ar    1  UNL1        0.0000
     16 C         140.9973  139.8734  169.0992 C.ar    1  UNL1        0.0000
     17 C         139.8480  142.9643  161.0282 C.ar    1  UNL1        0.0858
     18 C         138.4788  142.4820  160.6501 C.ar    1  UNL1        0.1090
     19 N         138.2539  142.8126  159.2043 N.ar    1  UNL1       -0.2346
     20 C         139.4839  143.4992  158.6889 C.ar    1  UNL1        0.1346
     21 S         140.4691  143.5929  159.8161 S.2     1  UNL1       -0.0614
     22 N         139.5612  141.5670  166.0247 N.pl3   1  UNL1       -0.3131
     23 H         139.4667  142.0778  166.8610 H       1  UNL1        0.1485
     24 C         138.9254  140.2144  165.8962 C.3     1  UNL1        0.1348
     25 C         139.5369  139.1806  164.9976 C.ar    1  UNL1        0.0788
     26 C         140.8205  138.5109  165.3897 C.ar    1  UNL1        0.0165
     27 C         141.4320  137.4771  164.4911 C.ar    1  UNL1        0.0029
     28 C         140.7598  137.1130  163.2005 C.ar    1  UNL1        0.0207
     29 C         139.4761  137.7828  162.8085 C.ar    1  UNL1        0.0985
     30 N         138.8647  138.8166  163.7071 N.ar    1  UNL1       -0.2464
@<TRIPOS>BOND
     1    11    12   ar
     2    12    13   ar
     3    13    14   ar
     4    14     1    1
     5     1     2   ar
     6     2     3   ar
     7     3     4   ar
     8     4     5   ar
     9     5     6   ar
    10     6     7   ar
    11     7    17    1
    12    17    18   ar
    13    18    19   ar
    14    19    20   ar
    15    20    21   ar
    16     7     8   ar
    17     8     9   ar
    18     9    22    1
    19    22    24    1
    20    24    25    1
    21    25    26   ar
    22    26    27   ar
    23    27    28   ar
    24    28    29   ar
    25    29    30   ar
    26     9    10   ar
    27    14    15   ar
    28    15    16   ar
    29    16    11   ar
    30    10     1   ar
    31    10     5   ar
    32    21    17   ar
    33    30    25   ar
    34    22    23    1
@<TRIPOS>MOLECULE
*****
 30 34 0 0 0
SMALL
GASTEIGER

@<TRIPOS>ATOM
      1 C         141.6072  139.1406  163.4904 C.ar    1  UNL1        0.0041
      2 C         142.9245  138.7936  162.8625 C.ar    1  UNL1        0.0002
      3 C         144.1811  138.8424  163.6801 C.ar    1  UNL1        0.0015
      4 C         144.1203  139.2381  165.1257 C.ar    1  UNL1        0.0192
      5 C         142.8030  139.5851  165.7536 C.ar    1  UNL1        0.0856
      6 N         142.7423  139.9808  167.1992 N.ar    1  UNL1       -0.2260
      7 C         141.4250  140.3277  167.8271 C.ar    1  UNL1        0.1712
      8 N         140.1683  140.2790  167.0094 N.ar    1  UNL1       -0.2115
      9 C         140.2291  139.8832  165.5638 C.ar    1  UNL1        0.1318
     10 C         141.5465  139.5363  164.9359 C.ar    1  UNL1        0.0491
     11 C         137.8373  138.9943  161.0373 C.ar    1  UNL1        0.0000
     12 C         138.7040  140.2182  161.0083 C.ar    1  UNL1        0.0000
     13 C         139.9607  140.2670  161.8260 C.ar    1  UNL1        0.0000
     14 C         140.3506  139.0918  162.6727 C.ar    1  UNL1        0.0001
     15 C         139.4839  137.8679  162.7017 C.ar    1  UNL1        0.0000
     16 C         138.2273  137.8191  161.8841 C.ar    1  UNL1        0.0000
     17 C         141.3642  140.7234  169.2727 C.ar    1  UNL1        0.0858
     18 C         140.5536  140.0474  170.3386 C.ar    1  UNL1        0.1090
     19 N         140.7918  140.7708  171.6309 N.ar    1  UNL1       -0.2346
     20 C         141.7496  141.8939  171.3637 C.ar    1  UNL1        0.1346
     21 S         142.1034  141.8646  169.9063 S.2     1  UNL1       -0.0614
     22 N         138.9725  139.8345  164.7462 N.pl3   1  UNL1       -0.3131
     23 H         138.8102  139.0777  164.1377 H       1  UNL1        0.1485
     24 C         137.9632  140.9388  164.8554 C.3     1  UNL1        0.1348
     25 C         138.3139  142.3234  164.3976 C.ar    1  UNL1        0.0788
     26 C         137.6654  142.8947  163.1716 C.ar    1  UNL1        0.0165
     27 C         138.0161  144.2794  162.7137 C.ar    1  UNL1        0.0029
     28 C         139.0154  145.0928  163.4817 C.ar    1  UNL1        0.0207
     29 C         139.6640  144.5214  164.7077 C.ar    1  UNL1        0.0985
     30 N         139.3132  143.1368  165.1656 N.ar    1  UNL1       -0.2464
@<TRIPOS>BOND
     1    11    12   ar
     2    12    13   ar
     3    13    14   ar
     4    14     1    1
     5     1     2   ar
     6     2     3   ar
     7     3     4   ar
     8     4     5   ar
     9     5     6   ar
    10     6     7   ar
    11     7    17    1
    12    17    18   ar
    13    18    19   ar
    14    19    20   ar
    15    20    21   ar
    16     7     8   ar
    17     8     9   ar
    18     9    22    1
    19    22    24    1
    20    24    25    1
    21    25    26   ar
    22    26    27   ar
    23    27    28   ar
    24    28    29   ar
    25    29    30   ar
    26     9    10   ar
    27    14    15   ar
    28    15    16   ar
    29    16    11   ar
    30    10     1   ar
    31    10     5   ar
    32    21    17   ar
    33    30    25   ar
    34    22    23    1
