@<TRIPOS>MOLECULE
*****
 29 31 0 0 0
SMALL
GASTEIGER

@<TRIPOS>ATOM
      1 C         145.0900  140.4125  163.6220 C.3     1  UNL1        0.0992
      2 C         144.1364  140.2728  164.7714 C.ar    1  UNL1       -0.0061
      3 C         143.5193  141.4938  165.3865 C.ar    1  UNL1       -0.0029
      4 C         142.5656  141.3541  166.5359 C.ar    1  UNL1       -0.0003
      5 C         142.2291  139.9934  167.0700 C.ar    1  UNL1        0.0001
      6 C         142.8462  138.7725  166.4549 C.ar    1  UNL1       -0.0003
      7 C         143.7999  138.9122  165.3055 C.ar    1  UNL1       -0.0029
      8 C         141.2754  139.8538  168.2194 C.2     1  UNL1        0.0047
      9 C         140.2813  140.9400  168.5053 C.2     1  UNL1        0.0598
     10 C         139.3276  140.8004  169.6547 C.2     1  UNL1        0.2679
     11 O         139.3586  141.7921  170.7797 O.2     1  UNL1       -0.2681
     12 N         138.3429  139.6691  169.6790 N.am    1  UNL1       -0.1934
     13 O         137.3893  139.5295  170.8285 O.3     1  UNL1       -0.2949
     14 H         138.3226  139.0182  168.9407 H       1  UNL1        0.1825
     15 H         137.5413  140.2468  171.4636 H       1  UNL1        0.2414
     16 N         144.6213  141.0053  162.3263 N.3     1  UNL1       -0.2686
     17 C         144.3831  143.5889  162.4590 C.3     1  UNL1        0.0188
     18 C         145.0786  142.3745  161.9190 C.3     1  UNL1        0.0724
     19 C         143.6953  140.2287  161.4378 C.3     1  UNL1        0.0771
     20 C         142.2145  140.2770  161.6728 C.3     1  UNL1        0.0453
     21 C         141.5406  139.1777  162.4393 C.2     1  UNL1       -0.0005
     22 C         141.7774  137.7070  162.2638 C.2     1  UNL1        0.0942
     23 N         140.8947  136.9766  163.2320 N.2     1  UNL1       -0.2482
     24 C         140.1124  137.9960  164.0059 C.2     1  UNL1        0.0631
     25 C         139.0881  137.8611  165.0934 C.3     1  UNL1        0.0717
     26 C         138.4631  139.0867  165.6910 C.2     1  UNL1       -0.0198
     27 C         138.8623  140.4471  165.2011 C.2     1  UNL1       -0.0042
     28 C         139.8865  140.5819  164.1136 C.2     1  UNL1        0.0006
     29 C         140.5116  139.3563  163.5160 C.2     1  UNL1        0.0114
@<TRIPOS>BOND
     1    17    18    1
     2    18    16    1
     3    16    19    1
     4    19    20    1
     5    20    21    1
     6    21    22    2
     7    22    23    1
     8    23    24    2
     9    24    25    1
    10    25    26    1
    11    26    27    2
    12    27    28    1
    13    28    29    2
    14    16     1    1
    15     1     2    1
    16     2     3   ar
    17     3     4   ar
    18     4     5   ar
    19     5     8    1
    20     8     9    2
    21     9    10    1
    22    10    11    2
    23    10    12   am
    24    12    13    1
    25     5     6   ar
    26     6     7   ar
    27    29    21    1
    28     7     2   ar
    29    29    24    1
    30    12    14    1
    31    13    15    1
@<TRIPOS>MOLECULE
*****
 29 31 0 0 0
SMALL
GASTEIGER

@<TRIPOS>ATOM
      1 C         137.5889  141.3659  163.3747 C.3     1  UNL1        0.0992
      2 C         138.3077  141.0387  164.6499 C.ar    1  UNL1       -0.0061
      3 C         139.2247  142.0483  165.2743 C.ar    1  UNL1       -0.0029
      4 C         139.9434  141.7210  166.5496 C.ar    1  UNL1       -0.0003
      5 C         139.7452  140.3842  167.2004 C.ar    1  UNL1        0.0001
      6 C         138.8282  139.3746  166.5760 C.ar    1  UNL1       -0.0003
      7 C         138.1095  139.7019  165.3007 C.ar    1  UNL1       -0.0029
      8 C         140.4640  140.0570  168.4757 C.2     1  UNL1        0.0047
      9 C         141.4239  141.0444  169.0702 C.2     1  UNL1        0.0598
     10 C         142.1427  140.7172  170.3454 C.2     1  UNL1        0.2679
     11 O         141.6879  141.3241  171.6397 O.2     1  UNL1       -0.2681
     12 N         143.3163  139.7832  170.3265 N.am    1  UNL1       -0.1934
     13 O         144.0350  139.4561  171.6018 O.3     1  UNL1       -0.2949
     14 H         143.6148  139.3850  169.4771 H       1  UNL1        0.1825
     15 H         143.6167  139.9279  172.3389 H       1  UNL1        0.2414
     16 N         138.1791  140.9618  162.0562 N.3     1  UNL1       -0.2686
     17 C         137.9450  138.3820  161.8580 C.3     1  UNL1        0.0188
     18 C         137.6508  139.7570  161.3357 C.3     1  UNL1        0.0724
     19 C         139.2976  141.7626  161.4581 C.3     1  UNL1        0.0771
     20 C         140.6809  141.1862  161.3922 C.3     1  UNL1        0.0453
     21 C         141.5806  141.2566  162.5904 C.2     1  UNL1       -0.0005
     22 C         142.4072  142.4380  163.0041 C.2     1  UNL1        0.0942
     23 N         143.1491  142.0695  164.2546 N.2     1  UNL1       -0.2482
     24 C         142.7811  140.6604  164.6137 C.2     1  UNL1        0.0631
     25 C         143.2035  139.7699  165.7444 C.3     1  UNL1        0.0717
     26 C         142.6565  138.3770  165.8466 C.2     1  UNL1       -0.0198
     27 C         141.6871  137.8746  164.8181 C.2     1  UNL1       -0.0042
     28 C         141.2647  138.7651  163.6874 C.2     1  UNL1        0.0006
     29 C         141.8117  140.1580  163.5852 C.2     1  UNL1        0.0114
@<TRIPOS>BOND
     1    17    18    1
     2    18    16    1
     3    16    19    1
     4    19    20    1
     5    20    21    1
     6    21    22    2
     7    22    23    1
     8    23    24    2
     9    24    25    1
    10    25    26    1
    11    26    27    2
    12    27    28    1
    13    28    29    2
    14    16     1    1
    15     1     2    1
    16     2     3   ar
    17     3     4   ar
    18     4     5   ar
    19     5     8    1
    20     8     9    2
    21     9    10    1
    22    10    11    2
    23    10    12   am
    24    12    13    1
    25     5     6   ar
    26     6     7   ar
    27    29    21    1
    28     7     2   ar
    29    29    24    1
    30    12    14    1
    31    13    15    1
@<TRIPOS>MOLECULE
*****
 29 31 0 0 0
SMALL
GASTEIGER

@<TRIPOS>ATOM
      1 C         140.7354  137.1735  163.9126 C.3     1  UNL1        0.0992
      2 C         141.1672  138.0900  165.0187 C.ar    1  UNL1       -0.0061
      3 C         142.6085  138.1408  165.4310 C.ar    1  UNL1       -0.0029
      4 C         143.0402  139.0574  166.5372 C.ar    1  UNL1       -0.0003
      5 C         142.0307  139.9230  167.2310 C.ar    1  UNL1        0.0001
      6 C         140.5894  139.8722  166.8187 C.ar    1  UNL1       -0.0003
      7 C         140.1576  138.9556  165.7125 C.ar    1  UNL1       -0.0029
      8 C         142.4625  140.8396  168.3371 C.2     1  UNL1        0.0047
      9 C         141.4763  141.2709  169.3817 C.2     1  UNL1        0.0598
     10 C         141.9081  142.1875  170.4879 C.2     1  UNL1        0.2679
     11 O         141.2882  142.0651  171.8484 O.2     1  UNL1       -0.2681
     12 N         142.9599  143.2263  170.2336 N.am    1  UNL1       -0.1934
     13 O         143.3917  144.1428  171.3398 O.3     1  UNL1       -0.2949
     14 H         143.3668  143.3066  169.3407 H       1  UNL1        0.1825
     15 H         142.8963  143.9316  172.1466 H       1  UNL1        0.2414
     16 N         140.7800  137.6433  162.4888 N.3     1  UNL1       -0.2686
     17 C         138.3511  138.5653  162.4770 C.3     1  UNL1        0.0188
     18 C         139.5047  137.9348  161.7548 C.3     1  UNL1        0.0724
     19 C         142.0999  137.8218  161.7989 C.3     1  UNL1        0.0771
     20 C         142.5766  139.1970  161.4360 C.3     1  UNL1        0.0453
     21 C         143.1109  140.1104  162.4991 C.2     1  UNL1       -0.0005
     22 C         144.5401  140.2034  162.9450 C.2     1  UNL1        0.0942
     23 N         144.6222  141.2416  164.0245 N.2     1  UNL1       -0.2482
     24 C         143.2438  141.7904  164.2457 C.2     1  UNL1        0.0631
     25 C         142.7186  142.8363  165.1838 C.3     1  UNL1        0.0717
     26 C         141.2593  143.1831  165.1792 C.2     1  UNL1       -0.0198
     27 C         140.3252  142.4840  164.2365 C.2     1  UNL1       -0.0042
     28 C         140.8505  141.4380  163.2984 C.2     1  UNL1        0.0006
     29 C         142.3098  141.0912  163.3030 C.2     1  UNL1        0.0114
@<TRIPOS>BOND
     1    17    18    1
     2    18    16    1
     3    16    19    1
     4    19    20    1
     5    20    21    1
     6    21    22    2
     7    22    23    1
     8    23    24    2
     9    24    25    1
    10    25    26    1
    11    26    27    2
    12    27    28    1
    13    28    29    2
    14    16     1    1
    15     1     2    1
    16     2     3   ar
    17     3     4   ar
    18     4     5   ar
    19     5     8    1
    20     8     9    2
    21     9    10    1
    22    10    11    2
    23    10    12   am
    24    12    13    1
    25     5     6   ar
    26     6     7   ar
    27    29    21    1
    28     7     2   ar
    29    29    24    1
    30    12    14    1
    31    13    15    1
@<TRIPOS>MOLECULE
*****
 29 31 0 0 0
SMALL
GASTEIGER

@<TRIPOS>ATOM
      1 C         142.4472  144.2674  163.1045 C.3     1  UNL1        0.0992
      2 C         141.9079  143.6473  164.3593 C.ar    1  UNL1       -0.0061
      3 C         140.5161  143.9693  164.8168 C.ar    1  UNL1       -0.0029
      4 C         139.9768  143.3492  166.0717 C.ar    1  UNL1       -0.0003
      5 C         140.8294  142.4072  166.8690 C.ar    1  UNL1        0.0001
      6 C         142.2211  142.0852  166.4116 C.ar    1  UNL1       -0.0003
      7 C         142.7604  142.7054  165.1567 C.ar    1  UNL1       -0.0029
      8 C         140.2900  141.7872  168.1239 C.2     1  UNL1        0.0047
      9 C         141.1627  141.6717  169.3384 C.2     1  UNL1        0.0598
     10 C         140.6234  141.0516  170.5933 C.2     1  UNL1        0.2679
     11 O         140.6049  141.8382  171.8705 O.2     1  UNL1       -0.2681
     12 N         140.1026  139.6451  170.5710 N.am    1  UNL1       -0.1934
     13 O         139.5633  139.0252  171.8260 O.3     1  UNL1       -0.2949
     14 H         140.1147  139.1289  169.7328 H       1  UNL1        0.1825
     15 H         139.6238  139.6635  172.5538 H       1  UNL1        0.2414
     16 N         141.8399  143.9231  161.7768 N.3     1  UNL1       -0.2686
     17 C         140.0090  145.7399  161.4663 C.3     1  UNL1        0.0188
     18 C         141.2011  144.9945  160.9438 C.3     1  UNL1        0.0724
     19 C         141.8714  142.5073  161.2822 C.3     1  UNL1        0.0771
     20 C         140.5892  141.7902  160.9787 C.3     1  UNL1        0.0453
     21 C         139.5549  141.6168  162.0512 C.2     1  UNL1       -0.0005
     22 C         138.2278  142.3126  162.1169 C.2     1  UNL1        0.0942
     23 N         137.5189  141.8429  163.3525 N.2     1  UNL1       -0.2482
     24 C         138.4079  140.8568  164.0505 C.2     1  UNL1        0.0631
     25 C         138.2341  140.0680  165.3144 C.3     1  UNL1        0.0717
     26 C         139.3188  139.1395  165.7741 C.2     1  UNL1       -0.0198
     27 C         140.5772  138.9997  164.9698 C.2     1  UNL1       -0.0042
     28 C         140.7509  139.7885  163.7058 C.2     1  UNL1        0.0006
     29 C         139.6663  140.7170  163.2462 C.2     1  UNL1        0.0114
@<TRIPOS>BOND
     1    17    18    1
     2    18    16    1
     3    16    19    1
     4    19    20    1
     5    20    21    1
     6    21    22    2
     7    22    23    1
     8    23    24    2
     9    24    25    1
    10    25    26    1
    11    26    27    2
    12    27    28    1
    13    28    29    2
    14    16     1    1
    15     1     2    1
    16     2     3   ar
    17     3     4   ar
    18     4     5   ar
    19     5     8    1
    20     8     9    2
    21     9    10    1
    22    10    11    2
    23    10    12   am
    24    12    13    1
    25     5     6   ar
    26     6     7   ar
    27    29    21    1
    28     7     2   ar
    29    29    24    1
    30    12    14    1
    31    13    15    1
@<TRIPOS>MOLECULE
*****
 29 31 0 0 0
SMALL
GASTEIGER

@<TRIPOS>ATOM
      1 C         144.3812  142.2455  163.5759 C.3     1  UNL1        0.0992
      2 C         143.6663  141.7759  164.8081 C.ar    1  UNL1       -0.0061
      3 C         142.9403  140.4634  164.7997 C.ar    1  UNL1       -0.0029
      4 C         142.2254  139.9939  166.0320 C.ar    1  UNL1       -0.0003
      5 C         142.2366  140.8370  167.2726 C.ar    1  UNL1        0.0001
      6 C         142.9626  142.1495  167.2810 C.ar    1  UNL1       -0.0003
      7 C         143.6775  142.6190  166.0487 C.ar    1  UNL1       -0.0029
      8 C         141.5217  140.3674  168.5049 C.2     1  UNL1        0.0047
      9 C         140.0843  140.7358  168.7243 C.2     1  UNL1        0.0598
     10 C         139.3694  140.2663  169.9566 C.2     1  UNL1        0.2679
     11 O         139.9943  140.4610  171.3063 O.2     1  UNL1       -0.2681
     12 N         138.0296  139.6021  169.8391 N.am    1  UNL1       -0.1934
     13 O         137.3147  139.1325  171.0715 O.3     1  UNL1       -0.2949
     14 H         137.6194  139.4743  168.9533 H       1  UNL1        0.1825
     15 H         137.8522  139.3337  171.8535 H       1  UNL1        0.2414
     16 N         143.7022  143.1900  162.6289 N.3     1  UNL1       -0.2686
     17 C         141.8327  141.8010  161.4778 C.3     1  UNL1        0.0188
     18 C         143.0549  142.6653  161.3817 C.3     1  UNL1        0.0724
     19 C         143.6706  144.6593  162.9290 C.3     1  UNL1        0.0771
     20 C         142.5393  145.2377  163.7266 C.3     1  UNL1        0.0453
     21 C         141.1249  145.0604  163.2596 C.2     1  UNL1       -0.0005
     22 C         140.4564  145.8307  162.1598 C.2     1  UNL1        0.0942
     23 N         139.0491  145.3280  162.0310 N.2     1  UNL1       -0.2482
     24 C         138.8478  144.2469  163.0512 C.2     1  UNL1        0.0631
     25 C         137.6620  143.3918  163.3869 C.3     1  UNL1        0.0717
     26 C         137.7593  142.3714  164.4819 C.2     1  UNL1       -0.0198
     27 C         139.0422  142.2060  165.2413 C.2     1  UNL1       -0.0042
     28 C         140.2280  143.0611  164.9056 C.2     1  UNL1        0.0006
     29 C         140.1308  144.0816  163.8106 C.2     1  UNL1        0.0114
@<TRIPOS>BOND
     1    17    18    1
     2    18    16    1
     3    16    19    1
     4    19    20    1
     5    20    21    1
     6    21    22    2
     7    22    23    1
     8    23    24    2
     9    24    25    1
    10    25    26    1
    11    26    27    2
    12    27    28    1
    13    28    29    2
    14    16     1    1
    15     1     2    1
    16     2     3   ar
    17     3     4   ar
    18     4     5   ar
    19     5     8    1
    20     8     9    2
    21     9    10    1
    22    10    11    2
    23    10    12   am
    24    12    13    1
    25     5     6   ar
    26     6     7   ar
    27    29    21    1
    28     7     2   ar
    29    29    24    1
    30    12    14    1
    31    13    15    1
@<TRIPOS>MOLECULE
*****
 29 31 0 0 0
SMALL
GASTEIGER

@<TRIPOS>ATOM
      1 C         140.9007  137.2801  163.6296 C.3     1  UNL1        0.0992
      2 C         141.3112  138.1926  164.7472 C.ar    1  UNL1       -0.0061
      3 C         142.7127  138.1433  165.2794 C.ar    1  UNL1       -0.0029
      4 C         143.1230  139.0559  166.3970 C.ar    1  UNL1       -0.0003
      5 C         142.1319  140.0177  166.9821 C.ar    1  UNL1        0.0001
      6 C         140.7304  140.0670  166.4499 C.ar    1  UNL1       -0.0003
      7 C         140.3200  139.1545  165.3323 C.ar    1  UNL1       -0.0029
      8 C         142.5423  140.9302  168.0997 C.2     1  UNL1        0.0047
      9 C         141.5736  141.2533  169.1984 C.2     1  UNL1        0.0598
     10 C         141.9840  142.1658  170.3159 C.2     1  UNL1        0.2679
     11 O         141.2790  142.0965  171.6382 O.2     1  UNL1       -0.2681
     12 N         143.0993  143.1477  170.1112 N.am    1  UNL1       -0.1934
     13 O         143.5097  144.0603  171.2288 O.3     1  UNL1       -0.2949
     14 H         143.5620  143.1933  169.2434 H       1  UNL1        0.1825
     15 H         142.9574  143.8869  172.0071 H       1  UNL1        0.2414
     16 N         140.8473  137.7952  162.2219 N.3     1  UNL1       -0.2686
     17 C         138.2650  138.0670  162.3070 C.3     1  UNL1        0.0188
     18 C         139.5294  137.9112  161.5151 C.3     1  UNL1        0.0724
     19 C         142.1119  138.1944  161.5208 C.3     1  UNL1        0.0771
     20 C         142.3576  139.6343  161.1792 C.3     1  UNL1        0.0453
     21 C         141.9627  140.7121  162.1447 C.2     1  UNL1       -0.0005
     22 C         140.6078  141.3466  162.2520 C.2     1  UNL1        0.0942
     23 N         140.6611  142.3714  163.3461 N.2     1  UNL1       -0.2482
     24 C         142.0491  142.3702  163.9150 C.2     1  UNL1        0.0631
     25 C         142.6843  143.1704  165.0132 C.3     1  UNL1        0.0717
     26 C         144.1239  142.9451  165.3690 C.2     1  UNL1       -0.0198
     27 C         144.9284  141.9196  164.6265 C.2     1  UNL1       -0.0042
     28 C         144.2931  141.1194  163.5283 C.2     1  UNL1        0.0006
     29 C         142.8535  141.3447  163.1725 C.2     1  UNL1        0.0114
@<TRIPOS>BOND
     1    17    18    1
     2    18    16    1
     3    16    19    1
     4    19    20    1
     5    20    21    1
     6    21    22    2
     7    22    23    1
     8    23    24    2
     9    24    25    1
    10    25    26    1
    11    26    27    2
    12    27    28    1
    13    28    29    2
    14    16     1    1
    15     1     2    1
    16     2     3   ar
    17     3     4   ar
    18     4     5   ar
    19     5     8    1
    20     8     9    2
    21     9    10    1
    22    10    11    2
    23    10    12   am
    24    12    13    1
    25     5     6   ar
    26     6     7   ar
    27    29    21    1
    28     7     2   ar
    29    29    24    1
    30    12    14    1
    31    13    15    1
@<TRIPOS>MOLECULE
*****
 29 31 0 0 0
SMALL
GASTEIGER

@<TRIPOS>ATOM
      1 C         143.3013  144.5130  163.1425 C.3     1  UNL1        0.0992
      2 C         142.8558  143.7444  164.3512 C.ar    1  UNL1       -0.0061
      3 C         143.8721  143.2041  165.3130 C.ar    1  UNL1       -0.0029
      4 C         143.4265  142.4355  166.5217 C.ar    1  UNL1       -0.0003
      5 C         141.9646  142.2072  166.7683 C.ar    1  UNL1        0.0001
      6 C         140.9483  142.7475  165.8064 C.ar    1  UNL1       -0.0003
      7 C         141.3940  143.5161  164.5978 C.ar    1  UNL1       -0.0029
      8 C         141.5191  141.4386  167.9769 C.2     1  UNL1        0.0047
      9 C         141.0384  142.1696  169.1954 C.2     1  UNL1        0.0598
     10 C         140.5929  141.4010  170.4040 C.2     1  UNL1        0.2679
     11 O         140.6040  142.0542  171.7544 O.2     1  UNL1       -0.2681
     12 N         140.1362  139.9792  170.2624 N.am    1  UNL1       -0.1934
     13 O         139.6907  139.2107  171.4711 O.3     1  UNL1       -0.2949
     14 H         140.1289  139.5505  169.3762 H       1  UNL1        0.1825
     15 H         139.7593  139.7754  172.2567 H       1  UNL1        0.2414
     16 N         143.2658  143.8683  161.7886 N.3     1  UNL1       -0.2686
     17 C         141.0411  145.0926  161.2394 C.3     1  UNL1        0.0188
     18 C         142.2077  144.2586  160.7996 C.3     1  UNL1        0.0724
     19 C         144.2883  142.8333  161.4237 C.3     1  UNL1        0.0771
     20 C         143.8736  141.4046  161.2307 C.3     1  UNL1        0.0453
     21 C         142.8220  140.8029  162.1150 C.2     1  UNL1       -0.0005
     22 C         141.3416  140.8422  161.8768 C.2     1  UNL1        0.0942
     23 N         140.6709  140.1199  163.0075 N.2     1  UNL1       -0.2482
     24 C         141.7368  139.6341  163.9444 C.2     1  UNL1        0.0631
     25 C         141.6685  138.8620  165.2286 C.3     1  UNL1        0.0717
     26 C         142.9298  138.5120  165.9612 C.2     1  UNL1       -0.0198
     27 C         144.2593  138.9342  165.4096 C.2     1  UNL1       -0.0042
     28 C         144.3275  139.7063  164.1255 C.2     1  UNL1        0.0006
     29 C         143.0663  140.0563  163.3929 C.2     1  UNL1        0.0114
@<TRIPOS>BOND
     1    17    18    1
     2    18    16    1
     3    16    19    1
     4    19    20    1
     5    20    21    1
     6    21    22    2
     7    22    23    1
     8    23    24    2
     9    24    25    1
    10    25    26    1
    11    26    27    2
    12    27    28    1
    13    28    29    2
    14    16     1    1
    15     1     2    1
    16     2     3   ar
    17     3     4   ar
    18     4     5   ar
    19     5     8    1
    20     8     9    2
    21     9    10    1
    22    10    11    2
    23    10    12   am
    24    12    13    1
    25     5     6   ar
    26     6     7   ar
    27    29    21    1
    28     7     2   ar
    29    29    24    1
    30    12    14    1
    31    13    15    1
@<TRIPOS>MOLECULE
*****
 29 31 0 0 0
SMALL
GASTEIGER

@<TRIPOS>ATOM
      1 C         140.3707  137.5976  163.0405 C.3     1  UNL1        0.0992
      2 C         140.2026  138.3117  164.3489 C.ar    1  UNL1       -0.0061
      3 C         141.4073  138.8018  165.0960 C.ar    1  UNL1       -0.0029
      4 C         141.2391  139.5159  166.4044 C.ar    1  UNL1       -0.0003
      5 C         139.8661  139.7398  166.9656 C.ar    1  UNL1        0.0001
      6 C         138.6614  139.2496  166.2184 C.ar    1  UNL1       -0.0003
      7 C         138.8296  138.5355  164.9100 C.ar    1  UNL1       -0.0029
      8 C         139.6980  140.4539  168.2739 C.2     1  UNL1        0.0047
      9 C         140.4752  141.7067  168.5499 C.2     1  UNL1        0.0598
     10 C         140.3071  142.4208  169.8583 C.2     1  UNL1        0.2679
     11 O         139.9484  143.8773  169.8771 O.2     1  UNL1       -0.2681
     12 N         140.4975  141.6785  171.1477 N.am    1  UNL1       -0.1934
     13 O         140.3293  142.3927  172.4561 O.3     1  UNL1       -0.2949
     14 H         140.7329  140.7227  171.1353 H       1  UNL1        0.1825
     15 H         140.0998  143.3205  172.2908 H       1  UNL1        0.2414
     16 N         140.1237  138.3248  161.7520 N.3     1  UNL1       -0.2686
     17 C         137.5984  138.8585  161.4558 C.3     1  UNL1        0.0188
     18 C         138.8321  138.1277  161.0153 C.3     1  UNL1        0.0724
     19 C         141.1683  139.2490  161.2002 C.3     1  UNL1        0.0771
     20 C         141.3108  140.6359  161.7540 C.3     1  UNL1        0.0453
     21 C         140.1536  141.5886  161.6973 C.2     1  UNL1       -0.0005
     22 C         139.3614  141.9416  160.4734 C.2     1  UNL1        0.0942
     23 N         138.3037  142.9268  160.8742 N.2     1  UNL1       -0.2482
     24 C         138.4422  143.1827  162.3457 C.2     1  UNL1        0.0631
     25 C         137.6750  144.0619  163.2882 C.3     1  UNL1        0.0717
     26 C         138.0511  144.1141  164.7393 C.2     1  UNL1       -0.0198
     27 C         139.1944  143.2870  165.2480 C.2     1  UNL1       -0.0042
     28 C         139.9616  142.4078  164.3055 C.2     1  UNL1        0.0006
     29 C         139.5855  142.3556  162.8544 C.2     1  UNL1        0.0114
@<TRIPOS>BOND
     1    17    18    1
     2    18    16    1
     3    16    19    1
     4    19    20    1
     5    20    21    1
     6    21    22    2
     7    22    23    1
     8    23    24    2
     9    24    25    1
    10    25    26    1
    11    26    27    2
    12    27    28    1
    13    28    29    2
    14    16     1    1
    15     1     2    1
    16     2     3   ar
    17     3     4   ar
    18     4     5   ar
    19     5     8    1
    20     8     9    2
    21     9    10    1
    22    10    11    2
    23    10    12   am
    24    12    13    1
    25     5     6   ar
    26     6     7   ar
    27    29    21    1
    28     7     2   ar
    29    29    24    1
    30    12    14    1
    31    13    15    1
@<TRIPOS>MOLECULE
*****
 29 31 0 0 0
SMALL
GASTEIGER

@<TRIPOS>ATOM
      1 C         142.2084  144.6421  163.0798 C.3     1  UNL1        0.0992
      2 C         141.8471  143.8496  164.3011 C.ar    1  UNL1       -0.0061
      3 C         142.8716  142.9705  164.9549 C.ar    1  UNL1       -0.0029
      4 C         142.5103  142.1780  166.1762 C.ar    1  UNL1       -0.0003
      5 C         141.1245  142.2647  166.7435 C.ar    1  UNL1        0.0001
      6 C         140.0999  143.1438  166.0897 C.ar    1  UNL1       -0.0003
      7 C         140.4613  143.9363  164.8684 C.ar    1  UNL1       -0.0029
      8 C         140.7632  141.4722  167.9648 C.2     1  UNL1        0.0047
      9 C         140.8208  142.1139  169.3194 C.2     1  UNL1        0.0598
     10 C         140.4596  141.3214  170.5407 C.2     1  UNL1        0.2679
     11 O         140.5261  141.9603  171.8962 O.2     1  UNL1       -0.2681
     12 N         140.0317  139.8900  170.4064 N.am    1  UNL1       -0.1934
     13 O         139.6704  139.0976  171.6278 O.3     1  UNL1       -0.2949
     14 H         139.9880  139.4706  169.5168 H       1  UNL1        0.1825
     15 H         139.7666  139.6555  172.4154 H       1  UNL1        0.2414
     16 N         141.5611  144.3284  161.7636 N.3     1  UNL1       -0.2686
     17 C         139.7057  146.1386  161.9380 C.3     1  UNL1        0.0188
     18 C         140.6654  145.3378  161.1087 C.3     1  UNL1        0.0724
     19 C         141.8094  143.0052  161.1021 C.3     1  UNL1        0.0771
     20 C         140.8769  141.8564  161.3492 C.3     1  UNL1        0.0453
     21 C         141.2054  140.8361  162.3985 C.2     1  UNL1       -0.0005
     22 C         142.5060  140.1021  162.5379 C.2     1  UNL1        0.0942
     23 N         142.3953  139.1830  163.7182 N.2     1  UNL1       -0.2482
     24 C         141.0263  139.3491  164.3082 C.2     1  UNL1        0.0631
     25 C         140.3544  138.7020  165.4829 C.3     1  UNL1        0.0717
     26 C         138.9470  139.0766  165.8418 C.2     1  UNL1       -0.0198
     27 C         138.2116  140.0983  165.0262 C.2     1  UNL1       -0.0042
     28 C         138.8835  140.7454  163.8516 C.2     1  UNL1        0.0006
     29 C         140.2909  140.3708  163.4926 C.2     1  UNL1        0.0114
@<TRIPOS>BOND
     1    17    18    1
     2    18    16    1
     3    16    19    1
     4    19    20    1
     5    20    21    1
     6    21    22    2
     7    22    23    1
     8    23    24    2
     9    24    25    1
    10    25    26    1
    11    26    27    2
    12    27    28    1
    13    28    29    2
    14    16     1    1
    15     1     2    1
    16     2     3   ar
    17     3     4   ar
    18     4     5   ar
    19     5     8    1
    20     8     9    2
    21     9    10    1
    22    10    11    2
    23    10    12   am
    24    12    13    1
    25     5     6   ar
    26     6     7   ar
    27    29    21    1
    28     7     2   ar
    29    29    24    1
    30    12    14    1
    31    13    15    1
