@<TRIPOS>MOLECULE
*****
 33 35 0 0 0
SMALL
GASTEIGER

@<TRIPOS>ATOM
      1 S         141.9552  144.4441  162.7719 S.O2    1  UNL1        0.0768
      2 O         141.0884  145.6323  163.0661 O.2     1  UNL1       -0.1498
      3 O         142.8221  143.2559  162.4776 O.2     1  UNL1       -0.1498
      4 N         141.8885  145.4071  158.9224 N.am    1  UNL1       -0.2671
      5 C         141.5024  144.7995  160.2383 C.2     1  UNL1        0.3231
      6 O         140.2771  143.9398  160.3368 O.2     1  UNL1       -0.2509
      7 N         142.3414  145.0517  161.4559 N.am    1  UNL1       -0.1690
      8 H         142.6927  145.9713  158.8578 H       1  UNL1        0.1565
      9 H         143.1456  145.6160  161.3913 H       1  UNL1        0.1781
     10 C         139.3713  144.6505  155.2698 C.ar    1  UNL1        0.1388
     11 C         139.2807  145.9667  155.9836 C.ar    1  UNL1        0.0382
     12 C         140.1198  146.2188  157.2012 C.ar    1  UNL1        0.0178
     13 C         141.0494  145.1549  157.7049 C.ar    1  UNL1        0.0518
     14 C         141.1400  143.8388  156.9910 C.ar    1  UNL1        0.0178
     15 C         140.3009  143.5866  155.7735 C.ar    1  UNL1        0.0382
     16 C         137.0446  144.2573  154.1827 C.3     1  UNL1        0.2525
     17 O         138.5322  144.3984  154.0523 O.3     1  UNL1       -0.4714
     18 C         141.5691  143.8365  164.0878 C.ar    1  UNL1        0.1255
     19 C         140.1897  144.0509  164.6369 C.ar    1  UNL1        0.0233
     20 C         139.8036  143.4433  165.9528 C.ar    1  UNL1        0.0383
     21 C         140.7967  142.6214  166.7197 C.ar    1  UNL1        0.1386
     22 C         142.1760  142.4070  166.1706 C.ar    1  UNL1        0.0383
     23 C         142.5622  143.0146  164.8546 C.ar    1  UNL1        0.0233
     24 O         140.4106  142.0138  168.0356 O.3     1  UNL1       -0.4754
     25 C         140.3045  140.5237  168.1714 C.3     1  UNL1        0.2068
     26 C         139.3482  139.7579  167.3059 C.3     1  UNL1        0.0646
     27 C         139.7892  139.2561  165.9629 C.3     1  UNL1        0.0759
     28 N         139.4059  140.0036  164.7201 N.3     1  UNL1       -0.2726
     29 C         138.0121  140.5356  164.5647 C.3     1  UNL1        0.0721
     30 C         137.6288  141.2831  163.3219 C.3     1  UNL1        0.0174
     31 C         138.6393  141.4984  162.2345 C.3     1  UNL1        0.0029
     32 C         140.0332  140.9663  162.3899 C.3     1  UNL1        0.0174
     33 C         140.4164  140.2189  163.6327 C.3     1  UNL1        0.0721
@<TRIPOS>BOND
     1    16    17    1
     2    17    10    1
     3    10    11   ar
     4    11    12   ar
     5    12    13   ar
     6    13     4    1
     7     4     5   am
     8     5     6    2
     9     5     7   am
    10     7     1    1
    11     1     2    2
    12     1     3    2
    13     1    18    1
    14    18    19   ar
    15    19    20   ar
    16    20    21   ar
    17    21    24    1
    18    24    25    1
    19    25    26    1
    20    26    27    1
    21    27    28    1
    22    28    29    1
    23    29    30    1
    24    30    31    1
    25    31    32    1
    26    32    33    1
    27    21    22   ar
    28    22    23   ar
    29    13    14   ar
    30    14    15   ar
    31    15    10   ar
    32    23    18   ar
    33    33    28    1
    34     4     8    1
    35     7     9    1
@<TRIPOS>MOLECULE
*****
 33 35 0 0 0
SMALL
GASTEIGER

@<TRIPOS>ATOM
      1 S         139.1907  140.1873  162.6302 S.O2    1  UNL1        0.0768
      2 O         140.4675  140.9609  162.7758 O.2     1  UNL1       -0.1498
      3 O         137.9139  139.4137  162.4846 O.2     1  UNL1       -0.1498
      4 N         139.9724  139.4570  158.8085 N.am    1  UNL1       -0.2671
      5 C         139.9028  139.2916  160.2977 C.2     1  UNL1        0.3231
      6 O         140.4758  138.0650  160.9437 O.2     1  UNL1       -0.2509
      7 N         139.2603  140.3527  161.1409 N.am    1  UNL1       -0.1690
      8 H         139.5963  140.2620  158.3845 H       1  UNL1        0.1565
      9 H         138.8842  141.1578  160.7169 H       1  UNL1        0.1781
     10 C         141.9000  136.2735  156.2787 C.ar    1  UNL1        0.1388
     11 C         142.7090  137.0055  157.3080 C.ar    1  UNL1        0.0382
     12 C         142.0664  138.0667  158.1513 C.ar    1  UNL1        0.0178
     13 C         140.6149  138.3958  157.9652 C.ar    1  UNL1        0.0518
     14 C         139.8059  137.6637  156.9359 C.ar    1  UNL1        0.0178
     15 C         140.4484  136.6026  156.0926 C.ar    1  UNL1        0.0382
     16 C         141.8472  133.9004  155.2225 C.3     1  UNL1        0.2525
     17 O         142.5425  135.2123  155.4354 O.3     1  UNL1       -0.4714
     18 C         139.1211  140.0219  164.1194 C.ar    1  UNL1        0.1255
     19 C         139.6093  141.1181  165.0194 C.ar    1  UNL1        0.0233
     20 C         139.5397  140.9527  166.5086 C.ar    1  UNL1        0.0383
     21 C         138.9820  139.6910  167.0979 C.ar    1  UNL1        0.1386
     22 C         138.4938  138.5948  166.1979 C.ar    1  UNL1        0.0383
     23 C         138.5634  138.7602  164.7086 C.ar    1  UNL1        0.0233
     24 O         138.9124  139.5256  168.5870 O.3     1  UNL1       -0.4754
     25 C         139.7633  140.3820  169.4774 C.3     1  UNL1        0.2068
     26 C         140.8718  139.7634  170.2765 C.3     1  UNL1        0.0646
     27 C         142.2986  139.9612  169.8580 C.3     1  UNL1        0.0759
     28 N         142.6186  140.3529  168.4458 N.3     1  UNL1       -0.2726
     29 C         142.7414  139.2997  167.3848 C.3     1  UNL1        0.0721
     30 C         143.0614  139.6914  165.9726 C.3     1  UNL1        0.0174
     31 C         143.2586  141.1363  165.6214 C.3     1  UNL1        0.0029
     32 C         143.1358  142.1895  166.6825 C.3     1  UNL1        0.0174
     33 C         142.8158  141.7978  168.0946 C.3     1  UNL1        0.0721
@<TRIPOS>BOND
     1    16    17    1
     2    17    10    1
     3    10    11   ar
     4    11    12   ar
     5    12    13   ar
     6    13     4    1
     7     4     5   am
     8     5     6    2
     9     5     7   am
    10     7     1    1
    11     1     2    2
    12     1     3    2
    13     1    18    1
    14    18    19   ar
    15    19    20   ar
    16    20    21   ar
    17    21    24    1
    18    24    25    1
    19    25    26    1
    20    26    27    1
    21    27    28    1
    22    28    29    1
    23    29    30    1
    24    30    31    1
    25    31    32    1
    26    32    33    1
    27    21    22   ar
    28    22    23   ar
    29    13    14   ar
    30    14    15   ar
    31    15    10   ar
    32    23    18   ar
    33    33    28    1
    34     4     8    1
    35     7     9    1
@<TRIPOS>MOLECULE
*****
 33 35 0 0 0
SMALL
GASTEIGER

@<TRIPOS>ATOM
      1 S         138.7369  138.8346  161.7599 S.O2    1  UNL1        0.0768
      2 O         137.3470  138.2737  161.7011 O.2     1  UNL1       -0.1498
      3 O         140.1268  139.3956  161.8188 O.2     1  UNL1       -0.1498
      4 N         138.5808  139.9814  157.9638 N.am    1  UNL1       -0.2671
      5 C         138.5010  140.0220  159.4611 C.2     1  UNL1        0.3231
      6 O         138.1054  141.2906  160.1570 O.2     1  UNL1       -0.2509
      7 N         138.8167  138.7940  160.2625 N.am    1  UNL1       -0.1690
      8 H         138.8404  139.1488  157.5071 H       1  UNL1        0.1565
      9 H         139.0763  137.9614  159.8058 H       1  UNL1        0.1781
     10 C         137.6336  143.6654  155.5594 C.ar    1  UNL1        0.1388
     11 C         138.9859  143.5079  156.1891 C.ar    1  UNL1        0.0382
     12 C         139.3016  142.2799  156.9905 C.ar    1  UNL1        0.0178
     13 C         138.2651  141.2094  157.1623 C.ar    1  UNL1        0.0518
     14 C         136.9128  141.3669  156.5327 C.ar    1  UNL1        0.0178
     15 C         136.5970  142.5949  155.7312 C.ar    1  UNL1        0.0382
     16 C         138.1237  146.1435  154.9522 C.3     1  UNL1        0.2525
     17 O         137.3178  144.8934  154.7580 O.3     1  UNL1       -0.4714
     18 C         138.6571  138.8752  163.2572 C.ar    1  UNL1        0.1255
     19 C         138.2552  140.1420  163.9528 C.ar    1  UNL1        0.0233
     20 C         138.1754  140.1827  165.4501 C.ar    1  UNL1        0.0383
     21 C         138.4975  138.9565  166.2519 C.ar    1  UNL1        0.1386
     22 C         138.8994  137.6898  165.5564 C.ar    1  UNL1        0.0383
     23 C         138.9792  137.6491  164.0590 C.ar    1  UNL1        0.0233
     24 O         138.4177  138.9972  167.7492 O.3     1  UNL1       -0.4754
     25 C         139.2909  139.9412  168.5215 C.3     1  UNL1        0.2068
     26 C         140.7676  139.9799  168.2613 C.3     1  UNL1        0.0646
     27 C         141.4272  141.2701  167.8735 C.3     1  UNL1        0.0759
     28 N         141.1564  141.8762  166.5283 N.3     1  UNL1       -0.2726
     29 C         140.2561  143.0702  166.4112 C.3     1  UNL1        0.0721
     30 C         139.9853  143.6763  165.0661 C.3     1  UNL1        0.0174
     31 C         140.6149  143.0884  163.8381 C.3     1  UNL1        0.0029
     32 C         141.5153  141.8944  163.9552 C.3     1  UNL1        0.0174
     33 C         141.7861  141.2883  165.3003 C.3     1  UNL1        0.0721
@<TRIPOS>BOND
     1    16    17    1
     2    17    10    1
     3    10    11   ar
     4    11    12   ar
     5    12    13   ar
     6    13     4    1
     7     4     5   am
     8     5     6    2
     9     5     7   am
    10     7     1    1
    11     1     2    2
    12     1     3    2
    13     1    18    1
    14    18    19   ar
    15    19    20   ar
    16    20    21   ar
    17    21    24    1
    18    24    25    1
    19    25    26    1
    20    26    27    1
    21    27    28    1
    22    28    29    1
    23    29    30    1
    24    30    31    1
    25    31    32    1
    26    32    33    1
    27    21    22   ar
    28    22    23   ar
    29    13    14   ar
    30    14    15   ar
    31    15    10   ar
    32    23    18   ar
    33    33    28    1
    34     4     8    1
    35     7     9    1
@<TRIPOS>MOLECULE
*****
 33 35 0 0 0
SMALL
GASTEIGER

@<TRIPOS>ATOM
      1 S         143.4149  140.3333  158.6825 S.O2    1  UNL1        0.0768
      2 O         144.1620  139.4890  159.6720 O.2     1  UNL1       -0.1498
      3 O         142.6679  141.1775  157.6930 O.2     1  UNL1       -0.1498
      4 N         143.6995  137.2630  156.1840 N.am    1  UNL1       -0.2671
      5 C         143.2175  138.1431  157.2988 C.2     1  UNL1        0.3231
      6 O         142.0559  137.7133  158.1451 O.2     1  UNL1       -0.2509
      7 N         143.8970  139.4531  157.5676 N.am    1  UNL1       -0.1690
      8 H         144.4619  137.5452  155.6286 H       1  UNL1        0.1565
      9 H         144.6594  139.7353  157.0122 H       1  UNL1        0.1781
     10 C         141.6610  133.3331  155.3777 C.ar    1  UNL1        0.1388
     11 C         141.2972  134.5456  154.5732 C.ar    1  UNL1        0.0382
     12 C         141.9767  135.8556  154.8419 C.ar    1  UNL1        0.0178
     13 C         143.0200  135.9531  155.9152 C.ar    1  UNL1        0.0518
     14 C         143.3838  134.7405  156.7198 C.ar    1  UNL1        0.0178
     15 C         142.7043  133.4305  156.4510 C.ar    1  UNL1        0.0382
     16 C         141.7054  130.7354  155.3691 C.3     1  UNL1        0.2525
     17 O         140.9815  132.0231  155.1090 O.3     1  UNL1       -0.4714
     18 C         142.9328  141.2134  159.7974 C.ar    1  UNL1        0.1255
     19 C         142.9955  142.7054  159.6558 C.ar    1  UNL1        0.0233
     20 C         142.5134  143.5855  160.7706 C.ar    1  UNL1        0.0383
     21 C         141.9686  142.9737  162.0271 C.ar    1  UNL1        0.1386
     22 C         141.9060  141.4817  162.1688 C.ar    1  UNL1        0.0383
     23 C         142.3881  140.6015  161.0539 C.ar    1  UNL1        0.0233
     24 O         141.4866  143.8538  163.1420 O.3     1  UNL1       -0.4754
     25 C         142.2367  145.1062  163.4868 C.3     1  UNL1        0.2068
     26 C         143.6820  145.0302  163.8811 C.3     1  UNL1        0.0646
     27 C         144.1055  144.1379  165.0098 C.3     1  UNL1        0.0759
     28 N         144.2242  142.6584  164.7924 N.3     1  UNL1       -0.2726
     29 C         143.3665  141.7134  165.5806 C.3     1  UNL1        0.0721
     30 C         143.4851  140.2339  165.3631 C.3     1  UNL1        0.0174
     31 C         144.4614  139.6996  164.3575 C.3     1  UNL1        0.0029
     32 C         145.3192  140.6447  163.5694 C.3     1  UNL1        0.0174
     33 C         145.2005  142.1240  163.7868 C.3     1  UNL1        0.0721
@<TRIPOS>BOND
     1    16    17    1
     2    17    10    1
     3    10    11   ar
     4    11    12   ar
     5    12    13   ar
     6    13     4    1
     7     4     5   am
     8     5     6    2
     9     5     7   am
    10     7     1    1
    11     1     2    2
    12     1     3    2
    13     1    18    1
    14    18    19   ar
    15    19    20   ar
    16    20    21   ar
    17    21    24    1
    18    24    25    1
    19    25    26    1
    20    26    27    1
    21    27    28    1
    22    28    29    1
    23    29    30    1
    24    30    31    1
    25    31    32    1
    26    32    33    1
    27    21    22   ar
    28    22    23   ar
    29    13    14   ar
    30    14    15   ar
    31    15    10   ar
    32    23    18   ar
    33    33    28    1
    34     4     8    1
    35     7     9    1
@<TRIPOS>MOLECULE
*****
 33 35 0 0 0
SMALL
GASTEIGER

@<TRIPOS>ATOM
      1 S         139.0714  138.8109  161.9990 S.O2    1  UNL1        0.0768
      2 O         140.4879  139.3027  162.0376 O.2     1  UNL1       -0.1498
      3 O         137.6549  138.3190  161.9603 O.2     1  UNL1       -0.1498
      4 N         138.7448  139.6220  158.1279 N.am    1  UNL1       -0.2671
      5 C         138.6547  139.7644  159.6184 C.2     1  UNL1        0.3231
      6 O         138.0579  141.0027  160.2188 O.2     1  UNL1       -0.2509
      7 N         139.1614  138.6685  160.5084 N.am    1  UNL1       -0.1690
      8 H         139.1364  138.8093  157.7338 H       1  UNL1        0.1565
      9 H         139.5531  137.8557  160.1143 H       1  UNL1        0.1781
     10 C         137.2246  142.9098  155.4577 C.ar    1  UNL1        0.1388
     11 C         136.2691  141.9025  156.0254 C.ar    1  UNL1        0.0382
     12 C         136.7758  140.8066  156.9155 C.ar    1  UNL1        0.0178
     13 C         138.2380  140.7179  157.2378 C.ar    1  UNL1        0.0518
     14 C         139.1936  141.7252  156.6701 C.ar    1  UNL1        0.0178
     15 C         138.6868  142.8211  155.7800 C.ar    1  UNL1        0.0382
     16 C         136.5754  143.7690  153.0933 C.3     1  UNL1        0.2525
     17 O         136.7179  144.0057  154.5676 O.3     1  UNL1       -0.4714
     18 C         138.9813  138.9532  163.4894 C.ar    1  UNL1        0.1255
     19 C         138.7595  137.7423  164.3465 C.ar    1  UNL1        0.0233
     20 C         138.6694  137.8846  165.8370 C.ar    1  UNL1        0.0383
     21 C         138.8010  139.2379  166.4705 C.ar    1  UNL1        0.1386
     22 C         139.0228  140.4488  165.6135 C.ar    1  UNL1        0.0383
     23 C         139.1129  140.3065  164.1229 C.ar    1  UNL1        0.0233
     24 O         138.7109  139.3803  167.9610 O.3     1  UNL1       -0.4754
     25 C         139.6135  140.3397  168.6787 C.3     1  UNL1        0.2068
     26 C         140.9413  139.8742  169.1986 C.3     1  UNL1        0.0646
     27 C         142.2091  140.4403  168.6311 C.3     1  UNL1        0.0759
     28 N         142.4969  140.3129  167.1644 N.3     1  UNL1       -0.2726
     29 C         142.8616  141.5275  166.3634 C.3     1  UNL1        0.0721
     30 C         143.1493  141.4001  164.8967 C.3     1  UNL1        0.0174
     31 C         143.0723  140.0581  164.2312 C.3     1  UNL1        0.0029
     32 C         142.7076  138.8434  165.0323 C.3     1  UNL1        0.0174
     33 C         142.4199  138.9709  166.4989 C.3     1  UNL1        0.0721
@<TRIPOS>BOND
     1    16    17    1
     2    17    10    1
     3    10    11   ar
     4    11    12   ar
     5    12    13   ar
     6    13     4    1
     7     4     5   am
     8     5     6    2
     9     5     7   am
    10     7     1    1
    11     1     2    2
    12     1     3    2
    13     1    18    1
    14    18    19   ar
    15    19    20   ar
    16    20    21   ar
    17    21    24    1
    18    24    25    1
    19    25    26    1
    20    26    27    1
    21    27    28    1
    22    28    29    1
    23    29    30    1
    24    30    31    1
    25    31    32    1
    26    32    33    1
    27    21    22   ar
    28    22    23   ar
    29    13    14   ar
    30    14    15   ar
    31    15    10   ar
    32    23    18   ar
    33    33    28    1
    34     4     8    1
    35     7     9    1
@<TRIPOS>MOLECULE
*****
 33 35 0 0 0
SMALL
GASTEIGER

@<TRIPOS>ATOM
      1 S         142.9144  139.2874  161.3416 S.O2    1  UNL1        0.0768
      2 O         141.4230  139.2759  161.5017 O.2     1  UNL1       -0.1498
      3 O         144.4057  139.2990  161.1815 O.2     1  UNL1       -0.1498
      4 N         142.5616  138.4807  157.4719 N.am    1  UNL1       -0.2671
      5 C         142.7218  138.2888  158.9509 C.2     1  UNL1        0.3231
      6 O         142.8495  136.9060  159.5182 O.2     1  UNL1       -0.2509
      7 N         142.7542  139.4795  159.8625 N.am    1  UNL1       -0.1690
      8 H         142.4777  139.3882  157.0995 H       1  UNL1        0.1565
      9 H         142.6703  140.3870  159.4902 H       1  UNL1        0.1781
     10 C         142.4643  134.9086  154.7368 C.ar    1  UNL1        0.1388
     11 C         141.1872  135.4547  155.3030 C.ar    1  UNL1        0.0382
     12 C         141.2196  136.6454  156.2146 C.ar    1  UNL1        0.0178
     13 C         142.5292  137.2900  156.5602 C.ar    1  UNL1        0.0518
     14 C         143.8063  136.7439  155.9941 C.ar    1  UNL1        0.0178
     15 C         143.7739  135.5532  155.0824 C.ar    1  UNL1        0.0382
     16 C         141.9688  132.3887  154.3436 C.3     1  UNL1        0.2525
     17 O         142.4319  133.7179  153.8251 O.3     1  UNL1       -0.4714
     18 C         143.0746  139.0954  162.8206 C.ar    1  UNL1        0.1255
     19 C         141.9659  138.4794  163.6214 C.ar    1  UNL1        0.0233
     20 C         142.1261  138.2874  165.1004 C.ar    1  UNL1        0.0383
     21 C         143.3950  138.7114  165.7786 C.ar    1  UNL1        0.1386
     22 C         144.5037  139.3274  164.9779 C.ar    1  UNL1        0.0383
     23 C         144.3436  139.5195  163.4988 C.ar    1  UNL1        0.0233
     24 O         143.5553  138.5194  167.2576 O.3     1  UNL1       -0.4754
     25 C         142.6388  139.2291  168.2097 C.3     1  UNL1        0.2068
     26 C         142.7006  140.7223  168.3378 C.3     1  UNL1        0.0646
     27 C         141.8313  141.5858  167.4726 C.3     1  UNL1        0.0759
     28 N         142.3548  142.1078  166.1673 N.3     1  UNL1       -0.2726
     29 C         141.5122  142.0139  164.9299 C.3     1  UNL1        0.0721
     30 C         142.0357  142.5358  163.6246 C.3     1  UNL1        0.0174
     31 C         143.4018  143.1516  163.5569 C.3     1  UNL1        0.0029
     32 C         144.2444  143.2454  164.7943 C.3     1  UNL1        0.0174
     33 C         143.7209  142.7235  166.0995 C.3     1  UNL1        0.0721
@<TRIPOS>BOND
     1    16    17    1
     2    17    10    1
     3    10    11   ar
     4    11    12   ar
     5    12    13   ar
     6    13     4    1
     7     4     5   am
     8     5     6    2
     9     5     7   am
    10     7     1    1
    11     1     2    2
    12     1     3    2
    13     1    18    1
    14    18    19   ar
    15    19    20   ar
    16    20    21   ar
    17    21    24    1
    18    24    25    1
    19    25    26    1
    20    26    27    1
    21    27    28    1
    22    28    29    1
    23    29    30    1
    24    30    31    1
    25    31    32    1
    26    32    33    1
    27    21    22   ar
    28    22    23   ar
    29    13    14   ar
    30    14    15   ar
    31    15    10   ar
    32    23    18   ar
    33    33    28    1
    34     4     8    1
    35     7     9    1
@<TRIPOS>MOLECULE
*****
 33 35 0 0 0
SMALL
GASTEIGER

@<TRIPOS>ATOM
      1 S         142.1899  144.4585  163.2373 S.O2    1  UNL1        0.0768
      2 O         140.7214  144.7039  163.4195 O.2     1  UNL1       -0.1498
      3 O         143.6584  144.2130  163.0551 O.2     1  UNL1       -0.1498
      4 N         141.7741  145.3790  159.3993 N.am    1  UNL1       -0.2671
      5 C         141.7993  144.5853  160.6718 C.2     1  UNL1        0.3231
      6 O         141.4590  143.1245  160.6515 O.2     1  UNL1       -0.2509
      7 N         142.1647  145.2523  161.9647 N.am    1  UNL1       -0.1690
      8 H         141.9974  146.3378  159.4127 H       1  UNL1        0.1565
      9 H         142.3880  146.2110  161.9781 H       1  UNL1        0.1781
     10 C         140.6778  143.3781  155.5207 C.ar    1  UNL1        0.1388
     11 C         139.6120  144.0098  156.3662 C.ar    1  UNL1        0.0382
     12 C         139.9774  144.6768  157.6591 C.ar    1  UNL1        0.0178
     13 C         141.4087  144.7121  158.1064 C.ar    1  UNL1        0.0518
     14 C         142.4745  144.0804  157.2609 C.ar    1  UNL1        0.0178
     15 C         142.1090  143.4134  155.9680 C.ar    1  UNL1        0.0382
     16 C         139.0160  141.9659  154.1084 C.3     1  UNL1        0.2525
     17 O         140.3123  142.7111  154.2278 O.3     1  UNL1       -0.4714
     18 C         142.2151  143.6647  164.5097 C.ar    1  UNL1        0.1255
     19 C         140.9302  143.2065  165.1335 C.ar    1  UNL1        0.0233
     20 C         140.9554  142.4127  166.4060 C.ar    1  UNL1        0.0383
     21 C         142.2655  142.0770  167.0547 C.ar    1  UNL1        0.1386
     22 C         143.5505  142.5352  166.4310 C.ar    1  UNL1        0.0383
     23 C         143.5253  143.3290  165.1585 C.ar    1  UNL1        0.0233
     24 O         142.2908  141.2833  168.3272 O.3     1  UNL1       -0.4754
     25 C         142.6609  139.8299  168.2974 C.3     1  UNL1        0.2068
     26 C         142.3849  139.0107  167.0715 C.3     1  UNL1        0.0646
     27 C         143.4936  138.7052  166.1085 C.3     1  UNL1        0.0759
     28 N         143.5695  139.4304  164.7975 N.3     1  UNL1       -0.2726
     29 C         142.3180  139.6986  164.0152 C.3     1  UNL1        0.0721
     30 C         142.3939  140.4237  162.7043 C.3     1  UNL1        0.0174
     31 C         143.7212  140.8808  162.1758 C.3     1  UNL1        0.0029
     32 C         144.9727  140.6126  162.9582 C.3     1  UNL1        0.0174
     33 C         144.8968  139.8875  164.2690 C.3     1  UNL1        0.0721
@<TRIPOS>BOND
     1    16    17    1
     2    17    10    1
     3    10    11   ar
     4    11    12   ar
     5    12    13   ar
     6    13     4    1
     7     4     5   am
     8     5     6    2
     9     5     7   am
    10     7     1    1
    11     1     2    2
    12     1     3    2
    13     1    18    1
    14    18    19   ar
    15    19    20   ar
    16    20    21   ar
    17    21    24    1
    18    24    25    1
    19    25    26    1
    20    26    27    1
    21    27    28    1
    22    28    29    1
    23    29    30    1
    24    30    31    1
    25    31    32    1
    26    32    33    1
    27    21    22   ar
    28    22    23   ar
    29    13    14   ar
    30    14    15   ar
    31    15    10   ar
    32    23    18   ar
    33    33    28    1
    34     4     8    1
    35     7     9    1
@<TRIPOS>MOLECULE
*****
 33 35 0 0 0
SMALL
GASTEIGER

@<TRIPOS>ATOM
      1 S         139.8077  139.0341  161.2244 S.O2    1  UNL1        0.0768
      2 O         139.7130  137.6161  161.7042 O.2     1  UNL1       -0.1498
      3 O         139.9024  140.4521  160.7446 O.2     1  UNL1       -0.1498
      4 N         138.6650  140.3155  164.8024 N.am    1  UNL1       -0.2671
      5 C         139.5421  139.8733  163.6688 C.2     1  UNL1        0.3231
      6 O         141.0310  139.8281  163.8460 O.2     1  UNL1       -0.2509
      7 N         138.9305  139.4763  162.3580 N.am    1  UNL1       -0.1690
      8 H         137.6878  140.3452  164.6861 H       1  UNL1        0.1565
      9 H         137.9533  139.5060  162.2416 H       1  UNL1        0.1781
     10 C         140.4999  141.5065  168.7349 C.ar    1  UNL1        0.1388
     11 C         140.6002  142.4235  167.5521 C.ar    1  UNL1        0.0382
     12 C         139.9886  142.0265  166.2413 C.ar    1  UNL1        0.0178
     13 C         139.2766  140.7125  166.1132 C.ar    1  UNL1        0.0518
     14 C         139.1762  139.7955  167.2960 C.ar    1  UNL1        0.0178
     15 C         139.7879  140.1925  168.6068 C.ar    1  UNL1        0.0382
     16 C         141.8381  143.2099  170.1693 C.3     1  UNL1        0.2525
     17 O         141.1115  141.9035  170.0458 O.3     1  UNL1       -0.4714
     18 C         140.6849  138.5920  160.0908 C.ar    1  UNL1        0.1255
     19 C         142.1278  138.2673  160.3415 C.ar    1  UNL1        0.0233
     20 C         143.0050  137.8251  159.2079 C.ar    1  UNL1        0.0383
     21 C         142.4394  137.7077  157.8236 C.ar    1  UNL1        0.1386
     22 C         140.9966  138.0323  157.5729 C.ar    1  UNL1        0.0383
     23 C         140.1193  138.4745  158.7065 C.ar    1  UNL1        0.0233
     24 O         143.3166  137.2655  156.6901 O.3     1  UNL1       -0.4754
     25 C         142.7014  136.7694  155.4151 C.3     1  UNL1        0.2068
     26 C         142.7759  135.3132  155.0634 C.3     1  UNL1        0.0646
     27 C         142.1449  134.2914  155.9621 C.3     1  UNL1        0.0759
     28 N         142.9857  133.2123  156.5774 N.3     1  UNL1       -0.2726
     29 C         142.6104  131.7718  156.3924 C.3     1  UNL1        0.0721
     30 C         143.4513  130.6927  157.0078 C.3     1  UNL1        0.0174
     31 C         144.6674  131.0541  157.8080 C.3     1  UNL1        0.0029
     32 C         145.0427  132.4946  157.9929 C.3     1  UNL1        0.0174
     33 C         144.2019  133.5737  157.3776 C.3     1  UNL1        0.0721
@<TRIPOS>BOND
     1    16    17    1
     2    17    10    1
     3    10    11   ar
     4    11    12   ar
     5    12    13   ar
     6    13     4    1
     7     4     5   am
     8     5     6    2
     9     5     7   am
    10     7     1    1
    11     1     2    2
    12     1     3    2
    13     1    18    1
    14    18    19   ar
    15    19    20   ar
    16    20    21   ar
    17    21    24    1
    18    24    25    1
    19    25    26    1
    20    26    27    1
    21    27    28    1
    22    28    29    1
    23    29    30    1
    24    30    31    1
    25    31    32    1
    26    32    33    1
    27    21    22   ar
    28    22    23   ar
    29    13    14   ar
    30    14    15   ar
    31    15    10   ar
    32    23    18   ar
    33    33    28    1
    34     4     8    1
    35     7     9    1
@<TRIPOS>MOLECULE
*****
 33 35 0 0 0
SMALL
GASTEIGER

@<TRIPOS>ATOM
      1 S         143.4591  139.2537  161.3864 S.O2    1  UNL1        0.0768
      2 O         143.2605  140.6656  160.9205 O.2     1  UNL1       -0.1498
      3 O         143.6576  137.8418  161.8522 O.2     1  UNL1       -0.1498
      4 N         143.2600  138.0935  157.5963 N.am    1  UNL1       -0.2671
      5 C         142.8414  138.4915  158.9806 C.2     1  UNL1        0.3231
      6 O         141.3863  138.5251  159.3436 O.2     1  UNL1       -0.2509
      7 N         143.8778  138.8558  160.0020 N.am    1  UNL1       -0.1690
      8 H         144.2150  138.0715  157.3581 H       1  UNL1        0.1565
      9 H         144.8328  138.8337  159.7638 H       1  UNL1        0.1781
     10 C         140.1509  137.0006  154.5322 C.ar    1  UNL1        0.1388
     11 C         140.8382  135.9250  155.3199 C.ar    1  UNL1        0.0382
     12 C         141.8746  136.2893  156.3413 C.ar    1  UNL1        0.0178
     13 C         142.2236  137.7292  156.5750 C.ar    1  UNL1        0.0518
     14 C         141.5363  138.8049  155.7873 C.ar    1  UNL1        0.0178
     15 C         140.4999  138.4406  154.7659 C.ar    1  UNL1        0.0382
     16 C         137.8923  137.4899  153.3451 C.3     1  UNL1        0.2525
     17 O         139.1145  136.6363  153.5108 O.3     1  UNL1       -0.4714
     18 C         143.0404  139.6516  162.7707 C.ar    1  UNL1        0.1255
     19 C         142.1761  140.8606  162.9745 C.ar    1  UNL1        0.0233
     20 C         141.7574  141.2585  164.3588 C.ar    1  UNL1        0.0383
     21 C         142.2030  140.4475  165.5394 C.ar    1  UNL1        0.1386
     22 C         143.0672  139.2385  165.3356 C.ar    1  UNL1        0.0383
     23 C         143.4860  138.8406  163.9512 C.ar    1  UNL1        0.0233
     24 O         141.7843  140.8453  166.9237 O.3     1  UNL1       -0.4754
     25 C         140.7674  140.0279  167.6638 C.3     1  UNL1        0.2068
     26 C         139.3191  140.1074  167.2817 C.3     1  UNL1        0.0646
     27 C         138.6797  138.9801  166.5265 C.3     1  UNL1        0.0759
     28 N         138.9132  138.8378  165.0516 N.3     1  UNL1       -0.2726
     29 C         138.3053  139.8227  164.0976 C.3     1  UNL1        0.0721
     30 C         138.5387  139.6804  162.6226 C.3     1  UNL1        0.0174
     31 C         139.3801  138.5530  162.1019 C.3     1  UNL1        0.0029
     32 C         139.9880  137.5680  163.0560 C.3     1  UNL1        0.0174
     33 C         139.7545  137.7104  164.5309 C.3     1  UNL1        0.0721
@<TRIPOS>BOND
     1    16    17    1
     2    17    10    1
     3    10    11   ar
     4    11    12   ar
     5    12    13   ar
     6    13     4    1
     7     4     5   am
     8     5     6    2
     9     5     7   am
    10     7     1    1
    11     1     2    2
    12     1     3    2
    13     1    18    1
    14    18    19   ar
    15    19    20   ar
    16    20    21   ar
    17    21    24    1
    18    24    25    1
    19    25    26    1
    20    26    27    1
    21    27    28    1
    22    28    29    1
    23    29    30    1
    24    30    31    1
    25    31    32    1
    26    32    33    1
    27    21    22   ar
    28    22    23   ar
    29    13    14   ar
    30    14    15   ar
    31    15    10   ar
    32    23    18   ar
    33    33    28    1
    34     4     8    1
    35     7     9    1
