@<TRIPOS>MOLECULE
*****
 33 37 0 0 0
SMALL
GASTEIGER

@<TRIPOS>ATOM
      1 N         139.7603  138.1442  162.2756 N.3     1  UNL1       -0.2695
      2 C         139.8030  137.9423  163.7613 C.3     1  UNL1        0.0939
      3 C         141.0709  138.2069  164.5180 C.3     1  UNL1        0.1107
      4 N         142.2960  138.6734  163.7890 N.am    1  UNL1       -0.2764
      5 C         143.5638  138.9379  164.5457 C.2     1  UNL1        0.2301
      6 O         144.7889  139.4044  163.8167 O.2     1  UNL1       -0.2745
      7 C         142.2533  138.8753  162.3033 C.3     1  UNL1        0.1107
      8 C         140.9855  138.6107  161.5465 C.3     1  UNL1        0.0939
      9 C         138.4925  137.8797  161.5189 C.3     1  UNL1        0.0769
     10 C         137.4738  138.9689  161.3582 C.3     1  UNL1        0.0437
     11 O         139.4929  145.5395  161.3192 O.2     1  UNL1       -0.2449
     12 C         138.9869  144.6743  162.4352 C.2     1  UNL1        0.3409
     13 O         138.8592  145.2354  163.8204 O.3     1  UNL1       -0.4451
     14 C         138.3532  144.3702  164.9364 C.3     1  UNL1        0.2134
     15 C         137.9750  142.9438  164.6672 C.3     1  UNL1        0.0740
     16 C         138.1027  142.3828  163.2820 C.ar    1  UNL1       -0.0125
     17 C         137.7244  140.9564  163.0127 C.ar    1  UNL1       -0.0082
     18 C         137.8521  140.3953  161.6275 C.ar    1  UNL1       -0.0211
     19 C         138.3581  141.2605  160.5115 C.ar    1  UNL1       -0.0040
     20 C         138.7364  142.6868  160.7807 C.ar    1  UNL1        0.0058
     21 C         138.6087  143.2480  162.1660 C.ar    1  UNL1        0.0718
     22 C         143.6065  138.7360  166.0315 C.3     1  UNL1        0.1116
     23 C         142.8461  139.6598  166.9361 C.ar    1  UNL1       -0.0130
     24 C         142.3890  139.1827  168.2828 C.ar    1  UNL1       -0.0022
     25 C         141.6286  140.1065  169.1874 C.ar    1  UNL1        0.0190
     26 C         141.3253  141.5075  168.7454 C.ar    1  UNL1        0.0862
     27 C         141.7824  141.9846  167.3988 C.ar    1  UNL1        0.0190
     28 C         142.5429  141.0608  166.4941 C.ar    1  UNL1       -0.0022
     29 N         140.5650  142.4313  169.6499 N.ar    1  UNL1       -0.1886
     30 C         140.5717  143.9300  169.5871 C.ar    1  UNL1        0.2258
     31 N         139.6753  144.4436  170.6745 N.ar    1  UNL1       -0.1045
     32 N         139.1144  143.2623  171.4095 N.ar    1  UNL1       -0.0222
     33 N         139.6643  142.0187  170.7763 N.ar    1  UNL1       -0.0385
@<TRIPOS>BOND
     1    11    12    2
     2    12    13    1
     3    13    14    1
     4    14    15    1
     5    15    16    1
     6    16    17   ar
     7    17    18   ar
     8    18    10    1
     9    10     9    1
    10     9     1    1
    11     1     2    1
    12     2     3    1
    13     3     4    1
    14     4     5   am
    15     5     6    2
    16     5    22    1
    17    22    23    1
    18    23    24   ar
    19    24    25   ar
    20    25    26   ar
    21    26    29    1
    22    29    30   ar
    23    30    31   ar
    24    31    32   ar
    25    32    33   ar
    26    26    27   ar
    27    27    28   ar
    28     4     7    1
    29     7     8    1
    30    18    19   ar
    31    19    20   ar
    32    20    21   ar
    33    21    12    1
    34    21    16   ar
    35     8     1    1
    36    28    23   ar
    37    33    29   ar
@<TRIPOS>MOLECULE
*****
 33 37 0 0 0
SMALL
GASTEIGER

@<TRIPOS>ATOM
      1 N         140.6991  138.6482  161.1052 N.3     1  UNL1       -0.2695
      2 C         140.4732  138.1870  162.5147 C.3     1  UNL1        0.0939
      3 C         141.5335  138.4030  163.5535 C.3     1  UNL1        0.1107
      4 N         142.8197  139.0801  163.1829 N.am    1  UNL1       -0.2764
      5 C         143.8799  139.2961  164.2217 C.2     1  UNL1        0.2301
      6 O         145.1661  139.9732  163.8511 O.2     1  UNL1       -0.2745
      7 C         143.0455  139.5413  161.7736 C.3     1  UNL1        0.1107
      8 C         141.9852  139.3253  160.7347 C.3     1  UNL1        0.0939
      9 C         139.6388  138.4322  160.0665 C.3     1  UNL1        0.0769
     10 C         138.5219  139.4223  159.9177 C.3     1  UNL1        0.0437
     11 O         137.6296  144.3691  164.6064 O.2     1  UNL1       -0.2449
     12 C         138.4140  144.3579  163.3279 C.2     1  UNL1        0.3409
     13 O         139.1714  145.5805  162.9019 O.3     1  UNL1       -0.4451
     14 C         139.9558  145.5693  161.6234 C.3     1  UNL1        0.2134
     15 C         139.9828  144.3354  160.7708 C.3     1  UNL1        0.0740
     16 C         139.2254  143.1128  161.1968 C.ar    1  UNL1       -0.0125
     17 C         139.2523  141.8789  160.3443 C.ar    1  UNL1       -0.0082
     18 C         138.4949  140.6563  160.7703 C.ar    1  UNL1       -0.0211
     19 C         137.7105  140.6675  162.0488 C.ar    1  UNL1       -0.0040
     20 C         137.6836  141.9013  162.9013 C.ar    1  UNL1        0.0058
     21 C         138.4410  143.1240  162.4753 C.ar    1  UNL1        0.0718
     22 C         143.6541  138.8349  165.6311 C.3     1  UNL1        0.1116
     23 C         142.8864  139.6975  166.5885 C.ar    1  UNL1       -0.0130
     24 C         142.2917  140.9925  166.1201 C.ar    1  UNL1       -0.0022
     25 C         141.5241  141.8550  167.0775 C.ar    1  UNL1        0.0190
     26 C         141.3510  141.4226  168.5034 C.ar    1  UNL1        0.0862
     27 C         141.9456  140.1276  168.9718 C.ar    1  UNL1        0.0190
     28 C         142.7134  139.2650  168.0144 C.ar    1  UNL1       -0.0022
     29 N         140.5833  142.2851  169.4608 N.ar    1  UNL1       -0.1886
     30 C         140.6227  143.7833  169.5241 C.ar    1  UNL1        0.2258
     31 N         139.7052  144.2250  170.6254 N.ar    1  UNL1       -0.1045
     32 N         139.0988  142.9998  171.2428 N.ar    1  UNL1       -0.0222
     33 N         139.6414  141.8009  170.5231 N.ar    1  UNL1       -0.0385
@<TRIPOS>BOND
     1    11    12    2
     2    12    13    1
     3    13    14    1
     4    14    15    1
     5    15    16    1
     6    16    17   ar
     7    17    18   ar
     8    18    10    1
     9    10     9    1
    10     9     1    1
    11     1     2    1
    12     2     3    1
    13     3     4    1
    14     4     5   am
    15     5     6    2
    16     5    22    1
    17    22    23    1
    18    23    24   ar
    19    24    25   ar
    20    25    26   ar
    21    26    29    1
    22    29    30   ar
    23    30    31   ar
    24    31    32   ar
    25    32    33   ar
    26    26    27   ar
    27    27    28   ar
    28     4     7    1
    29     7     8    1
    30    18    19   ar
    31    19    20   ar
    32    20    21   ar
    33    21    12    1
    34    21    16   ar
    35     8     1    1
    36    28    23   ar
    37    33    29   ar
@<TRIPOS>MOLECULE
*****
 33 37 0 0 0
SMALL
GASTEIGER

@<TRIPOS>ATOM
      1 N         138.5912  139.9910  159.7638 N.3     1  UNL1       -0.2695
      2 C         137.6988  140.0116  160.9694 C.3     1  UNL1        0.0939
      3 C         138.0657  139.2174  162.1878 C.3     1  UNL1        0.1107
      4 N         139.3250  138.4025  162.2007 N.am    1  UNL1       -0.2764
      5 C         139.6919  137.6084  163.4191 C.2     1  UNL1        0.2301
      6 O         140.9512  136.7935  163.4321 O.2     1  UNL1       -0.2745
      7 C         140.2174  138.3819  160.9953 C.3     1  UNL1        0.1107
      8 C         139.8505  139.1761  159.7768 C.3     1  UNL1        0.0939
      9 C         138.2242  140.7852  158.5454 C.3     1  UNL1        0.0769
     10 C         138.7115  142.1958  158.3949 C.3     1  UNL1        0.0437
     11 O         143.8989  144.6264  162.1939 O.2     1  UNL1       -0.2449
     12 C         142.4293  144.5376  162.4807 C.2     1  UNL1        0.3409
     13 O         141.8891  145.0343  163.7889 O.3     1  UNL1       -0.4451
     14 C         140.4194  144.9456  164.0757 C.3     1  UNL1        0.2134
     15 C         139.4900  144.3601  163.0543 C.3     1  UNL1        0.0740
     16 C         140.0302  143.8634  161.7461 C.ar    1  UNL1       -0.0125
     17 C         139.1007  143.2779  160.7246 C.ar    1  UNL1       -0.0082
     18 C         139.6409  142.7813  159.4164 C.ar    1  UNL1       -0.0211
     19 C         141.1106  142.8700  159.1296 C.ar    1  UNL1       -0.0040
     20 C         142.0400  143.4555  160.1510 C.ar    1  UNL1        0.0058
     21 C         141.4998  143.9522  161.4593 C.ar    1  UNL1        0.0718
     22 C         138.7995  137.6290  164.6247 C.3     1  UNL1        0.1116
     23 C         139.1286  138.5191  165.7863 C.ar    1  UNL1       -0.0130
     24 C         140.4449  139.2370  165.8317 C.ar    1  UNL1       -0.0022
     25 C         140.7740  140.1271  166.9933 C.ar    1  UNL1        0.0190
     26 C         139.7869  140.2994  168.1095 C.ar    1  UNL1        0.0862
     27 C         138.4707  139.5815  168.0641 C.ar    1  UNL1        0.0190
     28 C         138.1415  138.6913  166.9025 C.ar    1  UNL1       -0.0022
     29 N         140.1160  141.1895  169.2711 N.ar    1  UNL1       -0.1886
     30 C         140.6743  142.5792  169.1866 C.ar    1  UNL1        0.2258
     31 N         140.8480  143.0948  170.5844 N.ar    1  UNL1       -0.1045
     32 N         140.3970  142.0237  171.5329 N.ar    1  UNL1       -0.0222
     33 N         139.9447  140.8462  170.7213 N.ar    1  UNL1       -0.0385
@<TRIPOS>BOND
     1    11    12    2
     2    12    13    1
     3    13    14    1
     4    14    15    1
     5    15    16    1
     6    16    17   ar
     7    17    18   ar
     8    18    10    1
     9    10     9    1
    10     9     1    1
    11     1     2    1
    12     2     3    1
    13     3     4    1
    14     4     5   am
    15     5     6    2
    16     5    22    1
    17    22    23    1
    18    23    24   ar
    19    24    25   ar
    20    25    26   ar
    21    26    29    1
    22    29    30   ar
    23    30    31   ar
    24    31    32   ar
    25    32    33   ar
    26    26    27   ar
    27    27    28   ar
    28     4     7    1
    29     7     8    1
    30    18    19   ar
    31    19    20   ar
    32    20    21   ar
    33    21    12    1
    34    21    16   ar
    35     8     1    1
    36    28    23   ar
    37    33    29   ar
@<TRIPOS>MOLECULE
*****
 33 37 0 0 0
SMALL
GASTEIGER

@<TRIPOS>ATOM
      1 N         138.5044  140.0785  160.5590 N.3     1  UNL1       -0.2695
      2 C         138.0295  140.9604  161.6757 C.3     1  UNL1        0.0939
      3 C         138.0682  140.4650  163.0909 C.3     1  UNL1        0.1107
      4 N         138.5817  139.0876  163.3896 N.am    1  UNL1       -0.2764
      5 C         138.6204  138.5921  164.8048 C.2     1  UNL1        0.2301
      6 O         139.1339  137.2148  165.1035 O.2     1  UNL1       -0.2745
      7 C         139.0565  138.2057  162.2730 C.3     1  UNL1        0.1107
      8 C         139.0179  138.7012  160.8577 C.3     1  UNL1        0.0939
      9 C         138.4657  140.5740  159.1437 C.3     1  UNL1        0.0769
     10 C         139.5598  141.4621  158.6299 C.3     1  UNL1        0.0437
     11 O         145.4971  141.7232  162.0841 O.2     1  UNL1       -0.2449
     12 C         144.3227  142.6563  162.0781 C.2     1  UNL1        0.3409
     13 O         144.3389  143.8879  162.9341 O.3     1  UNL1       -0.4451
     14 C         143.1645  144.8210  162.9281 C.3     1  UNL1        0.2134
     15 C         141.9738  144.5224  162.0661 C.3     1  UNL1        0.0740
     16 C         141.9575  143.2908  161.2101 C.ar    1  UNL1       -0.0125
     17 C         140.7668  142.9923  160.3480 C.ar    1  UNL1       -0.0082
     18 C         140.7506  141.7606  159.4920 C.ar    1  UNL1       -0.0211
     19 C         141.9250  140.8275  159.4980 C.ar    1  UNL1       -0.0040
     20 C         143.1157  141.1261  160.3600 C.ar    1  UNL1        0.0058
     21 C         143.1320  142.3577  161.2161 C.ar    1  UNL1        0.0718
     22 C         138.1456  139.4741  165.9215 C.3     1  UNL1        0.1116
     23 C         139.1395  140.2080  166.7720 C.ar    1  UNL1       -0.0130
     24 C         139.9834  141.2933  166.1720 C.ar    1  UNL1       -0.0022
     25 C         140.9774  142.0272  167.0225 C.ar    1  UNL1        0.0190
     26 C         141.1275  141.6759  168.4730 C.ar    1  UNL1        0.0862
     27 C         140.2836  140.5906  169.0730 C.ar    1  UNL1        0.0190
     28 C         139.2896  139.8566  168.2225 C.ar    1  UNL1       -0.0022
     29 N         142.1214  142.4098  169.3235 N.ar    1  UNL1       -0.1886
     30 C         143.6115  142.2433  169.2808 C.ar    1  UNL1        0.2258
     31 N         144.2108  143.1697  170.2969 N.ar    1  UNL1       -0.1045
     32 N         143.0910  143.9088  170.9677 N.ar    1  UNL1       -0.0222
     33 N         141.7998  143.4392  170.3661 N.ar    1  UNL1       -0.0385
@<TRIPOS>BOND
     1    11    12    2
     2    12    13    1
     3    13    14    1
     4    14    15    1
     5    15    16    1
     6    16    17   ar
     7    17    18   ar
     8    18    10    1
     9    10     9    1
    10     9     1    1
    11     1     2    1
    12     2     3    1
    13     3     4    1
    14     4     5   am
    15     5     6    2
    16     5    22    1
    17    22    23    1
    18    23    24   ar
    19    24    25   ar
    20    25    26   ar
    21    26    29    1
    22    29    30   ar
    23    30    31   ar
    24    31    32   ar
    25    32    33   ar
    26    26    27   ar
    27    27    28   ar
    28     4     7    1
    29     7     8    1
    30    18    19   ar
    31    19    20   ar
    32    20    21   ar
    33    21    12    1
    34    21    16   ar
    35     8     1    1
    36    28    23   ar
    37    33    29   ar
@<TRIPOS>MOLECULE
*****
 33 37 0 0 0
SMALL
GASTEIGER

@<TRIPOS>ATOM
      1 N         142.7649  139.3935  159.9767 N.3     1  UNL1       -0.2695
      2 C         143.2940  139.0970  161.3487 C.3     1  UNL1        0.0939
      3 C         142.3731  138.5734  162.4106 C.3     1  UNL1        0.1107
      4 N         140.9232  138.3461  162.1007 N.am    1  UNL1       -0.2764
      5 C         140.0023  137.8225  163.1626 C.2     1  UNL1        0.2301
      6 O         138.5524  137.5952  162.8526 O.2     1  UNL1       -0.2745
      7 C         140.3941  138.6425  160.7287 C.3     1  UNL1        0.1107
      8 C         141.3150  139.1662  159.6667 C.3     1  UNL1        0.0939
      9 C         143.6858  139.9171  158.9147 C.3     1  UNL1        0.0769
     10 C         143.9025  141.3944  158.7719 C.3     1  UNL1        0.0437
     11 O         143.9118  145.2514  164.4618 O.2     1  UNL1       -0.2449
     12 C         142.8546  145.0434  163.4181 C.2     1  UNL1        0.3409
     13 O         141.5356  145.7477  163.5360 O.3     1  UNL1       -0.4451
     14 C         140.4784  145.5398  162.4923 C.3     1  UNL1        0.2134
     15 C         140.7403  144.6275  161.3308 C.3     1  UNL1        0.0740
     16 C         142.0594  143.9233  161.2129 C.ar    1  UNL1       -0.0125
     17 C         142.3214  143.0110  160.0514 C.ar    1  UNL1       -0.0082
     18 C         143.6405  142.3067  159.9335 C.ar    1  UNL1       -0.0211
     19 C         144.6977  142.5147  160.9771 C.ar    1  UNL1       -0.0040
     20 C         144.4357  143.4269  162.1387 C.ar    1  UNL1        0.0058
     21 C         143.1166  144.1312  162.2566 C.ar    1  UNL1        0.0718
     22 C         140.5314  137.5261  164.5346 C.3     1  UNL1        0.1116
     23 C         140.3917  138.5431  165.6282 C.ar    1  UNL1       -0.0130
     24 C         139.0494  138.7999  166.2467 C.ar    1  UNL1       -0.0022
     25 C         138.9097  139.8169  167.3403 C.ar    1  UNL1        0.0190
     26 C         140.1122  140.5773  167.8155 C.ar    1  UNL1        0.0862
     27 C         141.4544  140.3206  167.1970 C.ar    1  UNL1        0.0190
     28 C         141.5942  139.3035  166.1034 C.ar    1  UNL1       -0.0022
     29 N         139.9725  141.5944  168.9091 N.ar    1  UNL1       -0.1886
     30 C         140.4994  142.9985  168.8799 C.ar    1  UNL1        0.2258
     31 N         140.1339  143.6579  170.1766 N.ar    1  UNL1       -0.1045
     32 N         139.3811  142.6612  171.0073 N.ar    1  UNL1       -0.0222
     33 N         139.2813  141.3860  170.2240 N.ar    1  UNL1       -0.0385
@<TRIPOS>BOND
     1    11    12    2
     2    12    13    1
     3    13    14    1
     4    14    15    1
     5    15    16    1
     6    16    17   ar
     7    17    18   ar
     8    18    10    1
     9    10     9    1
    10     9     1    1
    11     1     2    1
    12     2     3    1
    13     3     4    1
    14     4     5   am
    15     5     6    2
    16     5    22    1
    17    22    23    1
    18    23    24   ar
    19    24    25   ar
    20    25    26   ar
    21    26    29    1
    22    29    30   ar
    23    30    31   ar
    24    31    32   ar
    25    32    33   ar
    26    26    27   ar
    27    27    28   ar
    28     4     7    1
    29     7     8    1
    30    18    19   ar
    31    19    20   ar
    32    20    21   ar
    33    21    12    1
    34    21    16   ar
    35     8     1    1
    36    28    23   ar
    37    33    29   ar
@<TRIPOS>MOLECULE
*****
 33 37 0 0 0
SMALL
GASTEIGER

@<TRIPOS>ATOM
      1 N         142.7822  138.3703  159.0770 N.3     1  UNL1       -0.2695
      2 C         143.1198  137.6765  160.3635 C.3     1  UNL1        0.0939
      3 C         143.7644  138.4414  161.4813 C.3     1  UNL1        0.1107
      4 N         144.0714  139.8999  161.3127 N.am    1  UNL1       -0.2764
      5 C         144.7160  140.6647  162.4305 C.2     1  UNL1        0.2301
      6 O         145.0230  142.1232  162.2620 O.2     1  UNL1       -0.2745
      7 C         143.7339  140.5936  160.0264 C.3     1  UNL1        0.1107
      8 C         143.0893  139.8288  158.9085 C.3     1  UNL1        0.0939
      9 C         142.1377  137.6054  157.9592 C.3     1  UNL1        0.0769
     10 C         142.9882  136.9230  156.9293 C.3     1  UNL1        0.0437
     11 O         140.9585  130.7418  154.7103 O.2     1  UNL1       -0.2449
     12 C         142.0704  131.1362  155.6366 C.2     1  UNL1        0.3409
     13 O         142.9529  130.0839  156.2398 O.3     1  UNL1       -0.4451
     14 C         144.0648  130.4782  157.1662 C.3     1  UNL1        0.2134
     15 C         144.2943  131.9249  157.4894 C.3     1  UNL1        0.0740
     16 C         143.4118  132.9772  156.8862 C.ar    1  UNL1       -0.0125
     17 C         143.6413  134.4239  157.2094 C.ar    1  UNL1       -0.0082
     18 C         142.7588  135.4762  156.6062 C.ar    1  UNL1       -0.0211
     19 C         141.6469  135.0819  155.6798 C.ar    1  UNL1       -0.0040
     20 C         141.4174  133.6352  155.3566 C.ar    1  UNL1        0.0058
     21 C         142.2999  132.5828  155.9598 C.ar    1  UNL1        0.0718
     22 C         145.0535  139.9710  163.7170 C.3     1  UNL1        0.1116
     23 C         144.0591  139.9473  164.8397 C.ar    1  UNL1       -0.0130
     24 C         143.1860  141.1404  165.0936 C.ar    1  UNL1       -0.0022
     25 C         142.1916  141.1167  166.2163 C.ar    1  UNL1        0.0190
     26 C         142.0701  139.8999  167.0851 C.ar    1  UNL1        0.0862
     27 C         142.9431  138.7069  166.8312 C.ar    1  UNL1        0.0190
     28 C         143.9376  138.7306  165.7085 C.ar    1  UNL1       -0.0022
     29 N         141.0756  139.8762  168.2078 N.ar    1  UNL1       -0.1886
     30 C         139.5912  140.0459  168.0745 C.ar    1  UNL1        0.2258
     31 N         138.9891  139.9532  169.4452 N.ar    1  UNL1       -0.1045
     32 N         140.1015  139.7263  170.4257 N.ar    1  UNL1       -0.0222
     33 N         141.3910  139.6787  169.6610 N.ar    1  UNL1       -0.0385
@<TRIPOS>BOND
     1    11    12    2
     2    12    13    1
     3    13    14    1
     4    14    15    1
     5    15    16    1
     6    16    17   ar
     7    17    18   ar
     8    18    10    1
     9    10     9    1
    10     9     1    1
    11     1     2    1
    12     2     3    1
    13     3     4    1
    14     4     5   am
    15     5     6    2
    16     5    22    1
    17    22    23    1
    18    23    24   ar
    19    24    25   ar
    20    25    26   ar
    21    26    29    1
    22    29    30   ar
    23    30    31   ar
    24    31    32   ar
    25    32    33   ar
    26    26    27   ar
    27    27    28   ar
    28     4     7    1
    29     7     8    1
    30    18    19   ar
    31    19    20   ar
    32    20    21   ar
    33    21    12    1
    34    21    16   ar
    35     8     1    1
    36    28    23   ar
    37    33    29   ar
@<TRIPOS>MOLECULE
*****
 33 37 0 0 0
SMALL
GASTEIGER

@<TRIPOS>ATOM
      1 N         142.7165  139.3513  159.9190 N.3     1  UNL1       -0.2695
      2 C         143.3362  139.1422  161.2690 C.3     1  UNL1        0.0939
      3 C         142.5047  138.6205  162.4032 C.3     1  UNL1        0.1107
      4 N         141.0536  138.3078  162.1875 N.am    1  UNL1       -0.2764
      5 C         140.2222  137.7861  163.3218 C.2     1  UNL1        0.2301
      6 O         138.7711  137.4735  163.1061 O.2     1  UNL1       -0.2745
      7 C         140.4339  138.5169  160.8376 C.3     1  UNL1        0.1107
      8 C         141.2654  139.0386  159.7033 C.3     1  UNL1        0.0939
      9 C         143.5480  139.8730  158.7848 C.3     1  UNL1        0.0769
     10 C         143.7520  141.3500  158.6220 C.3     1  UNL1        0.0437
     11 O         139.7812  145.6314  162.2487 O.2     1  UNL1       -0.2449
     12 C         141.1923  145.1745  162.4719 C.2     1  UNL1        0.3409
     13 O         141.9636  145.6738  163.6576 O.3     1  UNL1       -0.4451
     14 C         143.3748  145.2169  163.8809 C.3     1  UNL1        0.2134
     15 C         144.0147  144.2608  162.9184 C.3     1  UNL1        0.0740
     16 C         143.2435  143.7616  161.7327 C.ar    1  UNL1       -0.0125
     17 C         143.8834  142.8054  160.7702 C.ar    1  UNL1       -0.0082
     18 C         143.1121  142.3062  159.5846 C.ar    1  UNL1       -0.0211
     19 C         141.7009  142.7630  159.3613 C.ar    1  UNL1       -0.0040
     20 C         141.0610  143.7191  160.3237 C.ar    1  UNL1        0.0058
     21 C         141.8323  144.2184  161.5095 C.ar    1  UNL1        0.0718
     22 C         140.8418  137.5771  164.6717 C.3     1  UNL1        0.1116
     23 C         140.6647  138.6086  165.7462 C.ar    1  UNL1       -0.0130
     24 C         139.2890  138.9553  166.2336 C.ar    1  UNL1       -0.0022
     25 C         139.1118  139.9868  167.3080 C.ar    1  UNL1        0.0190
     26 C         140.3102  140.6717  167.8951 C.ar    1  UNL1        0.0862
     27 C         141.6858  140.3251  167.4078 C.ar    1  UNL1        0.0190
     28 C         141.8631  139.2935  166.3333 C.ar    1  UNL1       -0.0022
     29 N         140.1330  141.7033  168.9696 N.ar    1  UNL1       -0.1886
     30 C         140.5840  143.1323  168.9029 C.ar    1  UNL1        0.2258
     31 N         140.2035  143.7991  170.1915 N.ar    1  UNL1       -0.1045
     32 N         139.5173  142.7822  171.0546 N.ar    1  UNL1       -0.0222
     33 N         139.4737  141.4869  170.2995 N.ar    1  UNL1       -0.0385
@<TRIPOS>BOND
     1    11    12    2
     2    12    13    1
     3    13    14    1
     4    14    15    1
     5    15    16    1
     6    16    17   ar
     7    17    18   ar
     8    18    10    1
     9    10     9    1
    10     9     1    1
    11     1     2    1
    12     2     3    1
    13     3     4    1
    14     4     5   am
    15     5     6    2
    16     5    22    1
    17    22    23    1
    18    23    24   ar
    19    24    25   ar
    20    25    26   ar
    21    26    29    1
    22    29    30   ar
    23    30    31   ar
    24    31    32   ar
    25    32    33   ar
    26    26    27   ar
    27    27    28   ar
    28     4     7    1
    29     7     8    1
    30    18    19   ar
    31    19    20   ar
    32    20    21   ar
    33    21    12    1
    34    21    16   ar
    35     8     1    1
    36    28    23   ar
    37    33    29   ar
@<TRIPOS>MOLECULE
*****
 33 37 0 0 0
SMALL
GASTEIGER

@<TRIPOS>ATOM
      1 N         142.7436  143.1499  159.5663 N.3     1  UNL1       -0.2695
      2 C         143.2754  143.4665  160.9327 C.3     1  UNL1        0.0939
      3 C         143.7926  142.3651  161.8099 C.3     1  UNL1        0.1107
      4 N         143.7781  140.9472  161.3208 N.am    1  UNL1       -0.2764
      5 C         144.2953  139.8459  162.1979 C.2     1  UNL1        0.2301
      6 O         144.2808  138.4280  161.7088 O.2     1  UNL1       -0.2745
      7 C         143.2463  140.6306  159.9544 C.3     1  UNL1        0.1107
      8 C         142.7290  141.7320  159.0772 C.3     1  UNL1        0.0939
      9 C         142.2263  144.2512  158.6891 C.3     1  UNL1        0.0769
     10 C         140.8793  144.8539  158.9577 C.3     1  UNL1        0.0437
     11 O         138.2913  144.9603  165.3249 O.2     1  UNL1       -0.2449
     12 C         138.1796  143.9341  164.2365 C.2     1  UNL1        0.3409
     13 O         137.3930  142.6781  164.4679 O.3     1  UNL1       -0.4451
     14 C         137.2813  141.6519  163.3795 C.3     1  UNL1        0.2134
     15 C         137.9562  141.8818  162.0598 C.3     1  UNL1        0.0740
     16 C         138.7428  143.1379  161.8285 C.ar    1  UNL1       -0.0125
     17 C         139.4178  143.3679  160.5087 C.ar    1  UNL1       -0.0082
     18 C         140.2043  144.6239  160.2774 C.ar    1  UNL1       -0.0211
     19 C         140.3160  145.6501  161.3658 C.ar    1  UNL1       -0.0040
     20 C         139.6411  145.4202  162.6855 C.ar    1  UNL1        0.0058
     21 C         138.8545  144.1640  162.9169 C.ar    1  UNL1        0.0718
     22 C         144.8271  140.1625  163.5644 C.3     1  UNL1        0.1116
     23 C         143.9190  140.0967  164.7564 C.ar    1  UNL1       -0.0130
     24 C         143.7419  138.8026  165.4939 C.ar    1  UNL1       -0.0022
     25 C         142.8338  138.7368  166.6859 C.ar    1  UNL1        0.0190
     26 C         142.1027  139.9652  167.1405 C.ar    1  UNL1        0.0862
     27 C         142.2798  141.2593  166.4030 C.ar    1  UNL1        0.0190
     28 C         143.1880  141.3251  165.2110 C.ar    1  UNL1       -0.0022
     29 N         141.1946  139.8995  168.3325 N.ar    1  UNL1       -0.1886
     30 C         139.7173  140.1594  168.3308 C.ar    1  UNL1        0.2258
     31 N         139.2140  139.9828  169.7328 N.ar    1  UNL1       -0.1045
     32 N         140.3803  139.6138  170.6009 N.ar    1  UNL1       -0.0222
     33 N         141.6043  139.5623  169.7356 N.ar    1  UNL1       -0.0385
@<TRIPOS>BOND
     1    11    12    2
     2    12    13    1
     3    13    14    1
     4    14    15    1
     5    15    16    1
     6    16    17   ar
     7    17    18   ar
     8    18    10    1
     9    10     9    1
    10     9     1    1
    11     1     2    1
    12     2     3    1
    13     3     4    1
    14     4     5   am
    15     5     6    2
    16     5    22    1
    17    22    23    1
    18    23    24   ar
    19    24    25   ar
    20    25    26   ar
    21    26    29    1
    22    29    30   ar
    23    30    31   ar
    24    31    32   ar
    25    32    33   ar
    26    26    27   ar
    27    27    28   ar
    28     4     7    1
    29     7     8    1
    30    18    19   ar
    31    19    20   ar
    32    20    21   ar
    33    21    12    1
    34    21    16   ar
    35     8     1    1
    36    28    23   ar
    37    33    29   ar
@<TRIPOS>MOLECULE
*****
 33 37 0 0 0
SMALL
GASTEIGER

@<TRIPOS>ATOM
      1 N         141.7574  138.7555  159.7900 N.3     1  UNL1       -0.2695
      2 C         142.0201  137.9468  161.0258 C.3     1  UNL1        0.0939
      3 C         141.1032  138.0631  162.2072 C.3     1  UNL1        0.1107
      4 N         139.9235  138.9880  162.1529 N.am    1  UNL1       -0.2764
      5 C         139.0066  139.1043  163.3343 C.2     1  UNL1        0.2301
      6 O         137.8270  140.0293  163.2800 O.2     1  UNL1       -0.2745
      7 C         139.6608  139.7967  160.9172 C.3     1  UNL1        0.1107
      8 C         140.5777  139.6804  159.7357 C.3     1  UNL1        0.0939
      9 C         142.6743  138.6392  158.6087 C.3     1  UNL1        0.0769
     10 C         142.1215  138.2716  157.2636 C.3     1  UNL1        0.0437
     11 O         141.2178  132.0879  154.4008 O.2     1  UNL1       -0.2449
     12 C         142.1745  132.5494  155.4599 C.2     1  UNL1        0.3409
     13 O         143.1446  131.5803  156.0680 O.3     1  UNL1       -0.4451
     14 C         144.1014  132.0417  157.1271 C.3     1  UNL1        0.2134
     15 C         144.0881  133.4722  157.5780 C.3     1  UNL1        0.0740
     16 C         143.1181  134.4413  156.9699 C.ar    1  UNL1       -0.0125
     17 C         143.1048  135.8719  157.4208 C.ar    1  UNL1       -0.0082
     18 C         142.1348  136.8410  156.8127 C.ar    1  UNL1       -0.0211
     19 C         141.1780  136.3796  155.7536 C.ar    1  UNL1       -0.0040
     20 C         141.1912  134.9490  155.3027 C.ar    1  UNL1        0.0058
     21 C         142.1613  133.9799  155.9108 C.ar    1  UNL1        0.0718
     22 C         139.2693  138.2956  164.5701 C.3     1  UNL1        0.1116
     23 C         139.6040  138.9843  165.8599 C.ar    1  UNL1       -0.0130
     24 C         138.5526  139.1490  166.9170 C.ar    1  UNL1       -0.0022
     25 C         138.8873  139.8376  168.2069 C.ar    1  UNL1        0.0190
     26 C         140.2734  140.3615  168.4397 C.ar    1  UNL1        0.0862
     27 C         141.3248  140.1969  167.3826 C.ar    1  UNL1        0.0190
     28 C         140.9901  139.5082  166.0927 C.ar    1  UNL1       -0.0022
     29 N         140.6081  141.0502  169.7295 N.ar    1  UNL1       -0.1886
     30 C         141.9863  141.3803  170.2210 C.ar    1  UNL1        0.2258
     31 N         141.8534  142.0637  171.5496 N.ar    1  UNL1       -0.1045
     32 N         140.3929  142.1560  171.8792 N.ar    1  UNL1       -0.0222
     33 N         139.6233  141.5296  170.7545 N.ar    1  UNL1       -0.0385
@<TRIPOS>BOND
     1    11    12    2
     2    12    13    1
     3    13    14    1
     4    14    15    1
     5    15    16    1
     6    16    17   ar
     7    17    18   ar
     8    18    10    1
     9    10     9    1
    10     9     1    1
    11     1     2    1
    12     2     3    1
    13     3     4    1
    14     4     5   am
    15     5     6    2
    16     5    22    1
    17    22    23    1
    18    23    24   ar
    19    24    25   ar
    20    25    26   ar
    21    26    29    1
    22    29    30   ar
    23    30    31   ar
    24    31    32   ar
    25    32    33   ar
    26    26    27   ar
    27    27    28   ar
    28     4     7    1
    29     7     8    1
    30    18    19   ar
    31    19    20   ar
    32    20    21   ar
    33    21    12    1
    34    21    16   ar
    35     8     1    1
    36    28    23   ar
    37    33    29   ar
