@<TRIPOS>MOLECULE
*****
 33 36 0 0 0
SMALL
GASTEIGER

@<TRIPOS>ATOM
      1 C         141.3892  141.9547  165.3244 C.ar    1  UNL1        0.0906
      2 C         141.1185  142.2470  166.7705 C.ar    1  UNL1        0.1496
      3 O         140.0581  143.3057  166.8388 O.2     1  UNL1       -0.4534
      4 C         139.6735  143.6678  165.4349 C.ar    1  UNL1        0.1454
      5 C         138.6805  144.6500  164.8879 C.ar    1  UNL1        0.0406
      6 C         138.5101  144.7971  163.4049 C.ar    1  UNL1        0.0395
      7 C         139.3328  143.9621  162.4689 C.ar    1  UNL1        0.1311
      8 O         139.1624  144.1093  160.9859 O.3     1  UNL1       -0.5058
      9 C         140.3258  142.9800  163.0160 C.ar    1  UNL1        0.0308
     10 C         140.4962  142.8328  164.4989 C.ar    1  UNL1        0.0421
     11 H         138.5420  144.7228  160.6442 H       1  UNL1        0.2922
     12 C         141.7902  141.5950  167.9426 C.ar    1  UNL1        0.0349
     13 C         141.4036  140.2042  168.3504 C.ar    1  UNL1        0.0061
     14 C         142.0753  139.5522  169.5224 C.ar    1  UNL1        0.0367
     15 C         143.1336  140.2910  170.2867 C.ar    1  UNL1        0.1337
     16 O         143.8053  139.6390  171.4587 O.3     1  UNL1       -0.5055
     17 C         143.5203  141.6817  169.8789 C.ar    1  UNL1        0.0367
     18 C         142.8485  142.3337  168.7069 C.ar    1  UNL1        0.0061
     19 H         143.5638  138.7702  171.7135 H       1  UNL1        0.2922
     20 C         142.9036  138.6123  163.8128 C.3     1  UNL1        0.1109
     21 N         141.9137  139.6079  164.3408 N.am    1  UNL1       -0.2991
     22 C         142.3792  140.9592  164.7964 C.2     1  UNL1        0.2490
     23 O         143.8346  141.3147  164.7240 O.2     1  UNL1       -0.2700
     24 H         140.9584  139.3745  164.3883 H       1  UNL1        0.1498
     25 C         141.1485  142.1450  162.0800 C.3     1  UNL1        0.1023
     26 N         140.5947  140.8613  161.5365 N.3     1  UNL1       -0.2668
     27 C         141.4531  139.9765  160.6818 C.3     1  UNL1        0.0725
     28 C         140.8993  138.6928  160.1383 C.3     1  UNL1        0.0199
     29 C         139.4872  138.2938  160.4495 C.3     1  UNL1        0.0321
     30 C         138.6289  139.1785  161.3041 C.3     1  UNL1        0.1265
     31 O         137.2168  138.7795  161.6153 O.3     1  UNL1       -0.3830
     32 C         139.1826  140.4623  161.8477 C.3     1  UNL1        0.1019
     33 H         136.8052  139.4568  162.1746 H       1  UNL1        0.2104
@<TRIPOS>BOND
     1    20    21    1
     2    21    22   am
     3    22    23    2
     4    22     1    1
     5     1     2   ar
     6     2    12    1
     7    12    13   ar
     8    13    14   ar
     9    14    15   ar
    10    15    16    1
    11    15    17   ar
    12    17    18   ar
    13     2     3   ar
    14     3     4   ar
    15     4     5   ar
    16     5     6   ar
    17     6     7   ar
    18     7     8    1
    19     7     9   ar
    20     9    25    1
    21    25    26    1
    22    26    27    1
    23    27    28    1
    24    28    29    1
    25    29    30    1
    26    30    31    1
    27    30    32    1
    28     9    10   ar
    29    10     1   ar
    30    18    12   ar
    31    10     4   ar
    32    32    26    1
    33    21    24    1
    34    16    19    1
    35     8    11    1
    36    31    33    1
@<TRIPOS>MOLECULE
*****
 33 36 0 0 0
SMALL
GASTEIGER

@<TRIPOS>ATOM
      1 C         140.3577  141.6725  165.4294 C.ar    1  UNL1        0.0906
      2 C         140.7502  141.0655  166.7437 C.ar    1  UNL1        0.1496
      3 O         140.3989  139.6077  166.7042 O.2     1  UNL1       -0.4534
      4 C         139.7893  139.3139  165.3656 C.ar    1  UNL1        0.1454
      5 C         139.2541  138.0492  164.7623 C.ar    1  UNL1        0.0406
      6 C         138.6934  138.0606  163.3711 C.ar    1  UNL1        0.0395
      7 C         138.6680  139.3367  162.5831 C.ar    1  UNL1        0.1311
      8 O         138.1074  139.3481  161.1918 O.3     1  UNL1       -0.5058
      9 C         139.2032  140.6014  163.1864 C.ar    1  UNL1        0.0308
     10 C         139.7639  140.5900  164.5776 C.ar    1  UNL1        0.0421
     11 H         137.7730  138.5581  160.8150 H       1  UNL1        0.2922
     12 C         141.3829  141.7891  167.8953 C.ar    1  UNL1        0.0349
     13 C         142.8361  141.5821  168.2038 C.ar    1  UNL1        0.0061
     14 C         143.4688  142.3057  169.3554 C.ar    1  UNL1        0.0367
     15 C         142.6483  143.2363  170.1984 C.ar    1  UNL1        0.1337
     16 O         143.2810  143.9599  171.3500 O.3     1  UNL1       -0.5055
     17 C         141.1951  143.4432  169.8898 C.ar    1  UNL1        0.0367
     18 C         140.5624  142.7196  168.7383 C.ar    1  UNL1        0.0061
     19 H         144.1888  143.8305  171.5427 H       1  UNL1        0.2922
     20 C         141.9772  145.0016  163.9993 C.3     1  UNL1        0.1109
     21 N         141.8059  143.5643  164.3928 N.am    1  UNL1       -0.2991
     22 C         140.5291  143.1098  165.0359 C.2     1  UNL1        0.2490
     23 O         139.4238  144.0926  165.2853 O.2     1  UNL1       -0.2700
     24 H         142.5314  142.9192  164.2291 H       1  UNL1        0.1498
     25 C         139.1778  141.8776  162.3985 C.3     1  UNL1        0.1023
     26 N         140.4076  142.3348  161.6715 N.3     1  UNL1       -0.2668
     27 C         141.5841  141.4142  161.5353 C.3     1  UNL1        0.0725
     28 C         142.8139  141.8714  160.8083 C.3     1  UNL1        0.0199
     29 C         142.8673  143.2491  160.2175 C.3     1  UNL1        0.0321
     30 C         141.6908  144.1696  160.3537 C.3     1  UNL1        0.1265
     31 O         141.7442  145.5474  159.7629 O.3     1  UNL1       -0.3830
     32 C         140.4610  143.7125  161.0807 C.3     1  UNL1        0.1019
     33 H         140.9087  146.0074  159.9393 H       1  UNL1        0.2104
@<TRIPOS>BOND
     1    20    21    1
     2    21    22   am
     3    22    23    2
     4    22     1    1
     5     1     2   ar
     6     2    12    1
     7    12    13   ar
     8    13    14   ar
     9    14    15   ar
    10    15    16    1
    11    15    17   ar
    12    17    18   ar
    13     2     3   ar
    14     3     4   ar
    15     4     5   ar
    16     5     6   ar
    17     6     7   ar
    18     7     8    1
    19     7     9   ar
    20     9    25    1
    21    25    26    1
    22    26    27    1
    23    27    28    1
    24    28    29    1
    25    29    30    1
    26    30    31    1
    27    30    32    1
    28     9    10   ar
    29    10     1   ar
    30    18    12   ar
    31    10     4   ar
    32    32    26    1
    33    21    24    1
    34    16    19    1
    35     8    11    1
    36    31    33    1
@<TRIPOS>MOLECULE
*****
 33 36 0 0 0
SMALL
GASTEIGER

@<TRIPOS>ATOM
      1 C         140.9766  141.6205  165.4691 C.ar    1  UNL1        0.0906
      2 C         140.9182  142.0833  166.8947 C.ar    1  UNL1        0.1496
      3 O         139.9969  143.2651  166.9610 O.2     1  UNL1       -0.4534
      4 C         139.4860  143.5328  165.5763 C.ar    1  UNL1        0.1454
      5 C         138.5476  144.5708  165.0359 C.ar    1  UNL1        0.0406
      6 C         138.2147  144.5923  163.5735 C.ar    1  UNL1        0.0395
      7 C         138.8203  143.5758  162.6515 C.ar    1  UNL1        0.1311
      8 O         138.4874  143.5973  161.1890 O.3     1  UNL1       -0.5058
      9 C         139.7586  142.5378  163.1918 C.ar    1  UNL1        0.0308
     10 C         140.0915  142.5164  164.6543 C.ar    1  UNL1        0.0421
     11 H         137.9012  144.2457  160.8514 H       1  UNL1        0.2922
     12 C         141.6522  141.4716  168.0511 C.ar    1  UNL1        0.0349
     13 C         142.7546  142.2321  168.7265 C.ar    1  UNL1        0.0061
     14 C         143.4886  141.6204  169.8829 C.ar    1  UNL1        0.0367
     15 C         143.1201  140.2482  170.3638 C.ar    1  UNL1        0.1337
     16 O         143.8540  139.6365  171.5201 O.3     1  UNL1       -0.5055
     17 C         142.0176  139.4878  169.6884 C.ar    1  UNL1        0.0367
     18 C         141.2837  140.0994  168.5320 C.ar    1  UNL1        0.0061
     19 H         144.5427  140.1116  171.9420 H       1  UNL1        0.2922
     20 C         144.0308  139.4954  164.0882 C.3     1  UNL1        0.1109
     21 N         143.2281  140.6511  164.6078 N.am    1  UNL1       -0.2991
     22 C         141.7793  140.4648  164.9495 C.2     1  UNL1        0.2490
     23 O         141.1335  139.1228  164.7715 O.2     1  UNL1       -0.2700
     24 H         143.6520  141.5320  164.7246 H       1  UNL1        0.1498
     25 C         140.3642  141.5214  162.2698 C.3     1  UNL1        0.1023
     26 N         141.7772  141.6874  161.7947 N.3     1  UNL1       -0.2668
     27 C         142.4059  140.6358  160.9291 C.3     1  UNL1        0.0725
     28 C         143.8189  140.8018  160.4540 C.3     1  UNL1        0.0199
     29 C         144.6033  142.0193  160.8443 C.3     1  UNL1        0.0321
     30 C         143.9747  143.0709  161.7098 C.3     1  UNL1        0.1265
     31 O         144.7591  144.2884  162.1001 O.3     1  UNL1       -0.3830
     32 C         142.5616  142.9049  162.1850 C.3     1  UNL1        0.1019
     33 H         144.2095  144.8626  162.6561 H       1  UNL1        0.2104
@<TRIPOS>BOND
     1    20    21    1
     2    21    22   am
     3    22    23    2
     4    22     1    1
     5     1     2   ar
     6     2    12    1
     7    12    13   ar
     8    13    14   ar
     9    14    15   ar
    10    15    16    1
    11    15    17   ar
    12    17    18   ar
    13     2     3   ar
    14     3     4   ar
    15     4     5   ar
    16     5     6   ar
    17     6     7   ar
    18     7     8    1
    19     7     9   ar
    20     9    25    1
    21    25    26    1
    22    26    27    1
    23    27    28    1
    24    28    29    1
    25    29    30    1
    26    30    31    1
    27    30    32    1
    28     9    10   ar
    29    10     1   ar
    30    18    12   ar
    31    10     4   ar
    32    32    26    1
    33    21    24    1
    34    16    19    1
    35     8    11    1
    36    31    33    1
@<TRIPOS>MOLECULE
*****
 33 36 0 0 0
SMALL
GASTEIGER

@<TRIPOS>ATOM
      1 C         141.4271  140.8699  165.5011 C.ar    1  UNL1        0.0906
      2 C         141.0852  140.7332  166.9552 C.ar    1  UNL1        0.1496
      3 O         140.0884  139.6211  167.0944 O.2     1  UNL1       -0.4534
      4 C         139.8142  139.0704  165.7263 C.ar    1  UNL1        0.1454
      5 C         138.9181  137.9659  165.2500 C.ar    1  UNL1        0.0406
      6 C         138.8493  137.6332  163.7890 C.ar    1  UNL1        0.0395
      7 C         139.6767  138.4051  162.8043 C.ar    1  UNL1        0.1311
      8 O         139.6079  138.0724  161.3432 O.3     1  UNL1       -0.5058
      9 C         140.5729  139.5096  163.2806 C.ar    1  UNL1        0.0308
     10 C         140.6416  139.8423  164.7416 C.ar    1  UNL1        0.0421
     11 H         139.0481  137.3824  161.0457 H       1  UNL1        0.2922
     12 C         141.6423  141.5630  168.0737 C.ar    1  UNL1        0.0349
     13 C         143.0603  141.3643  168.5207 C.ar    1  UNL1        0.0061
     14 C         143.6174  142.1941  169.6392 C.ar    1  UNL1        0.0367
     15 C         142.7566  143.2226  170.3108 C.ar    1  UNL1        0.1337
     16 O         143.3137  144.0524  171.4293 O.3     1  UNL1       -0.5055
     17 C         141.3386  143.4213  169.8638 C.ar    1  UNL1        0.0367
     18 C         140.7815  142.5915  168.7453 C.ar    1  UNL1        0.0061
     19 H         144.1994  143.9282  171.7085 H       1  UNL1        0.2922
     20 C         142.8751  144.2307  163.9650 C.3     1  UNL1        0.1109
     21 N         141.9160  143.2402  164.5559 N.am    1  UNL1       -0.2991
     22 C         142.3862  141.8604  164.9102 C.2     1  UNL1        0.2490
     23 O         143.8153  141.4713  164.6735 O.2     1  UNL1       -0.2700
     24 H         140.9780  143.4956  164.7113 H       1  UNL1        0.1498
     25 C         141.4003  140.2815  162.2959 C.3     1  UNL1        0.1023
     26 N         140.9203  141.6100  161.7915 N.3     1  UNL1       -0.2668
     27 C         141.8242  142.4655  160.9541 C.3     1  UNL1        0.0725
     28 C         141.3442  143.7941  160.4497 C.3     1  UNL1        0.0199
     29 C         139.9603  144.2672  160.7826 C.3     1  UNL1        0.0321
     30 C         139.0563  143.4118  161.6199 C.3     1  UNL1        0.1265
     31 O         137.6724  143.8850  161.9528 O.3     1  UNL1       -0.3830
     32 C         139.5363  142.0832  162.1244 C.3     1  UNL1        0.1019
     33 H         137.2248  143.2182  162.4968 H       1  UNL1        0.2104
@<TRIPOS>BOND
     1    20    21    1
     2    21    22   am
     3    22    23    2
     4    22     1    1
     5     1     2   ar
     6     2    12    1
     7    12    13   ar
     8    13    14   ar
     9    14    15   ar
    10    15    16    1
    11    15    17   ar
    12    17    18   ar
    13     2     3   ar
    14     3     4   ar
    15     4     5   ar
    16     5     6   ar
    17     6     7   ar
    18     7     8    1
    19     7     9   ar
    20     9    25    1
    21    25    26    1
    22    26    27    1
    23    27    28    1
    24    28    29    1
    25    29    30    1
    26    30    31    1
    27    30    32    1
    28     9    10   ar
    29    10     1   ar
    30    18    12   ar
    31    10     4   ar
    32    32    26    1
    33    21    24    1
    34    16    19    1
    35     8    11    1
    36    31    33    1
@<TRIPOS>MOLECULE
*****
 33 36 0 0 0
SMALL
GASTEIGER

@<TRIPOS>ATOM
      1 C         141.4060  141.9868  165.3654 C.ar    1  UNL1        0.0906
      2 C         142.3023  142.0381  166.5670 C.ar    1  UNL1        0.1496
      3 O         143.6565  142.4992  166.1157 O.2     1  UNL1       -0.4534
      4 C         143.5970  142.7329  164.6352 C.ar    1  UNL1        0.1454
      5 C         144.6297  143.1931  163.6495 C.ar    1  UNL1        0.0406
      6 C         144.2715  143.3366  162.2000 C.ar    1  UNL1        0.0395
      7 C         142.8805  143.0199  161.7363 C.ar    1  UNL1        0.1311
      8 O         142.5223  143.1635  160.2867 O.3     1  UNL1       -0.5058
      9 C         141.8479  142.5597  162.7220 C.ar    1  UNL1        0.0308
     10 C         142.2061  142.4162  164.1715 C.ar    1  UNL1        0.0421
     11 H         143.1674  143.4510  159.6710 H       1  UNL1        0.2922
     12 C         141.9129  141.6895  167.9730 C.ar    1  UNL1        0.0349
     13 C         142.4447  140.4403  168.6107 C.ar    1  UNL1        0.0061
     14 C         142.0554  140.0917  170.0168 C.ar    1  UNL1        0.0367
     15 C         141.1342  140.9923  170.7850 C.ar    1  UNL1        0.1337
     16 O         140.7448  140.6437  172.1911 O.3     1  UNL1       -0.5055
     17 C         140.6024  142.2414  170.1473 C.ar    1  UNL1        0.0367
     18 C         140.9917  142.5900  168.7413 C.ar    1  UNL1        0.0061
     19 H         141.0770  139.8633  172.5894 H       1  UNL1        0.2922
     20 C         138.1516  139.7156  165.4027 C.3     1  UNL1        0.1109
     21 N         139.5948  140.1245  165.4092 N.am    1  UNL1       -0.2991
     22 C         139.9628  141.5779  165.3588 C.2     1  UNL1        0.2490
     23 O         138.8876  142.6222  165.3019 O.2     1  UNL1       -0.2700
     24 H         140.3005  139.4390  165.4466 H       1  UNL1        0.1498
     25 C         140.4569  142.2430  162.2583 C.3     1  UNL1        0.1023
     26 N         140.0281  140.8151  162.0936 N.3     1  UNL1       -0.2668
     27 C         138.5787  140.4859  161.8910 C.3     1  UNL1        0.0725
     28 C         138.1499  139.0580  161.7263 C.3     1  UNL1        0.0199
     29 C         139.1704  137.9593  161.7642 C.3     1  UNL1        0.0321
     30 C         140.6197  138.2885  161.9668 C.3     1  UNL1        0.1265
     31 O         141.6403  137.1898  162.0046 O.3     1  UNL1       -0.3830
     32 C         141.0486  139.7164  162.1315 C.3     1  UNL1        0.1019
     33 H         142.5213  137.5715  162.1421 H       1  UNL1        0.2104
@<TRIPOS>BOND
     1    20    21    1
     2    21    22   am
     3    22    23    2
     4    22     1    1
     5     1     2   ar
     6     2    12    1
     7    12    13   ar
     8    13    14   ar
     9    14    15   ar
    10    15    16    1
    11    15    17   ar
    12    17    18   ar
    13     2     3   ar
    14     3     4   ar
    15     4     5   ar
    16     5     6   ar
    17     6     7   ar
    18     7     8    1
    19     7     9   ar
    20     9    25    1
    21    25    26    1
    22    26    27    1
    23    27    28    1
    24    28    29    1
    25    29    30    1
    26    30    31    1
    27    30    32    1
    28     9    10   ar
    29    10     1   ar
    30    18    12   ar
    31    10     4   ar
    32    32    26    1
    33    21    24    1
    34    16    19    1
    35     8    11    1
    36    31    33    1
@<TRIPOS>MOLECULE
*****
 33 36 0 0 0
SMALL
GASTEIGER

@<TRIPOS>ATOM
      1 C         141.7041  142.3017  165.3082 C.ar    1  UNL1        0.0906
      2 C         141.2250  142.3327  166.7293 C.ar    1  UNL1        0.1496
      3 O         139.9726  143.1567  166.7782 O.2     1  UNL1       -0.4534
      4 C         139.6776  143.6349  165.3875 C.ar    1  UNL1        0.1454
      5 C         138.5728  144.4833  164.8310 C.ar    1  UNL1        0.0406
      6 C         138.5382  144.8032  163.3659 C.ar    1  UNL1        0.0395
      7 C         139.6084  144.2748  162.4574 C.ar    1  UNL1        0.1311
      8 O         139.5737  144.5947  160.9923 O.3     1  UNL1       -0.5058
      9 C         140.7132  143.4264  163.0138 C.ar    1  UNL1        0.0308
     10 C         140.7478  143.1065  164.4789 C.ar    1  UNL1        0.0421
     11 H         138.8836  145.1247  160.6446 H       1  UNL1        0.2922
     12 C         141.8829  141.6581  167.8964 C.ar    1  UNL1        0.0349
     13 C         142.8733  142.4091  168.7360 C.ar    1  UNL1        0.0061
     14 C         143.5312  141.7346  169.9032 C.ar    1  UNL1        0.0367
     15 C         143.1985  140.3091  170.2307 C.ar    1  UNL1        0.1337
     16 O         143.8564  139.6345  171.3979 O.3     1  UNL1       -0.5055
     17 C         142.2081  139.5581  169.3911 C.ar    1  UNL1        0.0367
     18 C         141.5502  140.2327  168.2239 C.ar    1  UNL1        0.0061
     19 H         144.4751  140.1037  171.9224 H       1  UNL1        0.2922
     20 C         145.4191  141.6414  164.0780 C.3     1  UNL1        0.1109
     21 N         144.1980  142.3524  164.5815 N.am    1  UNL1       -0.2991
     22 C         142.9252  141.5907  164.8047 C.2     1  UNL1        0.2490
     23 O         142.8735  140.1181  164.5244 O.2     1  UNL1       -0.2700
     24 H         144.2320  143.3190  164.7654 H       1  UNL1        0.1498
     25 C         141.7833  142.8980  162.1053 C.3     1  UNL1        0.1023
     26 N         141.6938  141.4973  161.5762 N.3     1  UNL1       -0.2668
     27 C         140.3867  140.7624  161.6166 C.3     1  UNL1        0.0725
     28 C         140.2971  139.3617  161.0875 C.3     1  UNL1        0.0199
     29 C         141.5146  138.6958  160.5181 C.3     1  UNL1        0.0321
     30 C         142.8216  139.4305  160.4777 C.3     1  UNL1        0.1265
     31 O         144.0391  138.7646  159.9083 O.3     1  UNL1       -0.3830
     32 C         142.9112  140.8313  161.0068 C.3     1  UNL1        0.1019
     33 H         144.7932  139.3728  159.9576 H       1  UNL1        0.2104
@<TRIPOS>BOND
     1    20    21    1
     2    21    22   am
     3    22    23    2
     4    22     1    1
     5     1     2   ar
     6     2    12    1
     7    12    13   ar
     8    13    14   ar
     9    14    15   ar
    10    15    16    1
    11    15    17   ar
    12    17    18   ar
    13     2     3   ar
    14     3     4   ar
    15     4     5   ar
    16     5     6   ar
    17     6     7   ar
    18     7     8    1
    19     7     9   ar
    20     9    25    1
    21    25    26    1
    22    26    27    1
    23    27    28    1
    24    28    29    1
    25    29    30    1
    26    30    31    1
    27    30    32    1
    28     9    10   ar
    29    10     1   ar
    30    18    12   ar
    31    10     4   ar
    32    32    26    1
    33    21    24    1
    34    16    19    1
    35     8    11    1
    36    31    33    1
@<TRIPOS>MOLECULE
*****
 33 36 0 0 0
SMALL
GASTEIGER

@<TRIPOS>ATOM
      1 C         140.2091  141.5242  165.6368 C.ar    1  UNL1        0.0906
      2 C         140.3175  142.3546  166.8813 C.ar    1  UNL1        0.1496
      3 O         139.7909  143.7246  166.5716 O.2     1  UNL1       -0.4534
      4 C         139.3571  143.7408  165.1358 C.ar    1  UNL1        0.1454
      5 C         138.7601  144.8182  164.2798 C.ar    1  UNL1        0.0406
      6 C         138.4215  144.5357  162.8462 C.ar    1  UNL1        0.0395
      7 C         138.6799  143.1758  162.2684 C.ar    1  UNL1        0.1311
      8 O         138.3413  142.8933  160.8347 O.3     1  UNL1       -0.5058
      9 C         139.2769  142.0984  163.1244 C.ar    1  UNL1        0.0308
     10 C         139.6155  142.3809  164.5581 C.ar    1  UNL1        0.0421
     11 H         137.9684  143.5663  160.3000 H       1  UNL1        0.2922
     12 C         140.8577  141.8957  168.2032 C.ar    1  UNL1        0.0349
     13 C         139.9702  141.1564  169.1602 C.ar    1  UNL1        0.0061
     14 C         140.5104  140.6974  170.4822 C.ar    1  UNL1        0.0367
     15 C         141.9380  140.9778  170.8472 C.ar    1  UNL1        0.1337
     16 O         142.4781  140.5188  172.1692 O.3     1  UNL1       -0.5055
     17 C         142.8254  141.7170  169.8902 C.ar    1  UNL1        0.0367
     18 C         142.2853  142.1760  168.5682 C.ar    1  UNL1        0.0061
     19 H         141.9238  140.0570  172.7669 H       1  UNL1        0.2922
     20 C         142.4702  138.3087  165.0904 C.3     1  UNL1        0.1109
     21 N         142.0575  139.7439  165.2313 N.am    1  UNL1       -0.2991
     22 C         140.6218  140.0890  165.4959 C.2     1  UNL1        0.2490
     23 O         139.5990  138.9988  165.6194 O.2     1  UNL1       -0.2700
     24 H         142.7288  140.4594  165.1502 H       1  UNL1        0.1498
     25 C         139.5354  140.7384  162.5467 C.3     1  UNL1        0.1023
     26 N         140.9213  140.3564  162.1187 N.3     1  UNL1       -0.2668
     27 C         141.9988  141.3977  162.0497 C.3     1  UNL1        0.0725
     28 C         143.3847  141.0156  161.6217 C.3     1  UNL1        0.0199
     29 C         143.6932  139.5923  161.2627 C.3     1  UNL1        0.0321
     30 C         142.6158  138.5510  161.3317 C.3     1  UNL1        0.1265
     31 O         142.9243  137.1276  160.9727 O.3     1  UNL1       -0.3830
     32 C         141.2298  138.9330  161.7597 C.3     1  UNL1        0.1019
     33 H         142.1237  136.5887  161.0703 H       1  UNL1        0.2104
@<TRIPOS>BOND
     1    20    21    1
     2    21    22   am
     3    22    23    2
     4    22     1    1
     5     1     2   ar
     6     2    12    1
     7    12    13   ar
     8    13    14   ar
     9    14    15   ar
    10    15    16    1
    11    15    17   ar
    12    17    18   ar
    13     2     3   ar
    14     3     4   ar
    15     4     5   ar
    16     5     6   ar
    17     6     7   ar
    18     7     8    1
    19     7     9   ar
    20     9    25    1
    21    25    26    1
    22    26    27    1
    23    27    28    1
    24    28    29    1
    25    29    30    1
    26    30    31    1
    27    30    32    1
    28     9    10   ar
    29    10     1   ar
    30    18    12   ar
    31    10     4   ar
    32    32    26    1
    33    21    24    1
    34    16    19    1
    35     8    11    1
    36    31    33    1
@<TRIPOS>MOLECULE
*****
 33 36 0 0 0
SMALL
GASTEIGER

@<TRIPOS>ATOM
      1 C         141.4140  140.8851  165.5104 C.ar    1  UNL1        0.0906
      2 C         141.0845  140.7434  166.9669 C.ar    1  UNL1        0.1496
      3 O         140.0974  139.6233  167.1119 O.2     1  UNL1       -0.4534
      4 C         139.8169  139.0728  165.7451 C.ar    1  UNL1        0.1454
      5 C         138.9257  137.9621  165.2739 C.ar    1  UNL1        0.0406
      6 C         138.8481  137.6313  163.8129 C.ar    1  UNL1        0.0395
      7 C         139.6618  138.4111  162.8231 C.ar    1  UNL1        0.1311
      8 O         139.5843  138.0802  161.3621 O.3     1  UNL1       -0.5058
      9 C         140.5531  139.5218  163.2943 C.ar    1  UNL1        0.0308
     10 C         140.6306  139.8526  164.7553 C.ar    1  UNL1        0.0421
     11 H         139.0275  137.3864  161.0677 H       1  UNL1        0.2922
     12 C         141.6438  141.5757  168.0824 C.ar    1  UNL1        0.0349
     13 C         140.7807  142.5973  168.7615 C.ar    1  UNL1        0.0061
     14 C         141.3400  143.4295  169.8771 C.ar    1  UNL1        0.0367
     15 C         142.7625  143.2402  170.3135 C.ar    1  UNL1        0.1337
     16 O         143.3219  144.0725  171.4291 O.3     1  UNL1       -0.5055
     17 C         143.6257  142.2187  169.6344 C.ar    1  UNL1        0.0367
     18 C         143.0664  141.3864  168.5189 C.ar    1  UNL1        0.0061
     19 H         142.7826  144.7107  171.8533 H       1  UNL1        0.2922
     20 C         142.8374  144.2754  164.0168 C.3     1  UNL1        0.1109
     21 N         141.8907  143.2765  164.6135 N.am    1  UNL1       -0.2991
     22 C         142.3608  141.8840  164.9137 C.2     1  UNL1        0.2490
     23 O         143.7775  141.4905  164.6173 O.2     1  UNL1       -0.2700
     24 H         140.9608  143.5348  164.8081 H       1  UNL1        0.1498
     25 C         141.3668  140.3016  162.3045 C.3     1  UNL1        0.1023
     26 N         140.8970  141.6495  161.8436 N.3     1  UNL1       -0.2668
     27 C         139.5227  142.1292  162.2064 C.3     1  UNL1        0.0725
     28 C         139.0529  143.4771  161.7455 C.3     1  UNL1        0.0199
     29 C         139.9572  144.3453  160.9218 C.3     1  UNL1        0.0321
     30 C         141.3313  143.8657  160.5591 C.3     1  UNL1        0.1265
     31 O         142.2356  144.7339  159.7354 O.3     1  UNL1       -0.3830
     32 C         141.8013  142.5177  161.0200 C.3     1  UNL1        0.1019
     33 H         143.0797  144.2778  159.5924 H       1  UNL1        0.2104
@<TRIPOS>BOND
     1    20    21    1
     2    21    22   am
     3    22    23    2
     4    22     1    1
     5     1     2   ar
     6     2    12    1
     7    12    13   ar
     8    13    14   ar
     9    14    15   ar
    10    15    16    1
    11    15    17   ar
    12    17    18   ar
    13     2     3   ar
    14     3     4   ar
    15     4     5   ar
    16     5     6   ar
    17     6     7   ar
    18     7     8    1
    19     7     9   ar
    20     9    25    1
    21    25    26    1
    22    26    27    1
    23    27    28    1
    24    28    29    1
    25    29    30    1
    26    30    31    1
    27    30    32    1
    28     9    10   ar
    29    10     1   ar
    30    18    12   ar
    31    10     4   ar
    32    32    26    1
    33    21    24    1
    34    16    19    1
    35     8    11    1
    36    31    33    1
@<TRIPOS>MOLECULE
*****
 33 36 0 0 0
SMALL
GASTEIGER

@<TRIPOS>ATOM
      1 C         140.8737  141.1471  165.3323 C.ar    1  UNL1        0.0906
      2 C         140.8684  140.7672  166.7833 C.ar    1  UNL1        0.1496
      3 O         140.1832  139.4390  166.9122 O.2     1  UNL1       -0.4534
      4 C         139.7650  138.9982  165.5408 C.ar    1  UNL1        0.1454
      5 C         139.0507  137.7719  165.0550 C.ar    1  UNL1        0.0406
      6 C         138.7632  137.6012  163.5928 C.ar    1  UNL1        0.0395
      7 C         139.1900  138.6568  162.6163 C.ar    1  UNL1        0.1311
      8 O         138.9025  138.4861  161.1540 O.3     1  UNL1       -0.5058
      9 C         139.9042  139.8831  163.1021 C.ar    1  UNL1        0.0308
     10 C         140.1917  140.0538  164.5643 C.ar    1  UNL1        0.0421
     11 H         138.4563  137.7201  160.8506 H       1  UNL1        0.2922
     12 C         141.4468  141.5737  167.9080 C.ar    1  UNL1        0.0349
     13 C         140.5776  142.5300  168.6695 C.ar    1  UNL1        0.0061
     14 C         141.1559  143.3365  169.7942 C.ar    1  UNL1        0.0367
     15 C         142.6035  143.1868  170.1574 C.ar    1  UNL1        0.1337
     16 O         143.1819  143.9934  171.2821 O.3     1  UNL1       -0.5055
     17 C         143.4728  142.2305  169.3959 C.ar    1  UNL1        0.0367
     18 C         142.8944  141.4240  168.2712 C.ar    1  UNL1        0.0061
     19 H         142.6389  144.5907  171.7578 H       1  UNL1        0.2922
     20 C         141.1831  144.8698  163.9919 C.3     1  UNL1        0.1109
     21 N         140.5985  143.6165  164.5731 N.am    1  UNL1       -0.2991
     22 C         141.4583  142.4003  164.7511 C.2     1  UNL1        0.2490
     23 O         142.9025  142.4374  164.3479 O.2     1  UNL1       -0.2700
     24 H         139.6505  143.5923  164.8377 H       1  UNL1        0.1498
     25 C         140.3310  140.9388  162.1256 C.3     1  UNL1        0.1023
     26 N         141.4405  140.6589  161.1558 N.3     1  UNL1       -0.2668
     27 C         141.4634  141.3473  159.8232 C.3     1  UNL1        0.0725
     28 C         142.5729  141.0674  158.8534 C.3     1  UNL1        0.0199
     29 C         143.6596  140.0991  159.2161 C.3     1  UNL1        0.0321
     30 C         143.6367  139.4107  160.5486 C.3     1  UNL1        0.1265
     31 O         144.7234  138.4424  160.9113 O.3     1  UNL1       -0.3830
     32 C         142.5272  139.6906  161.5185 C.3     1  UNL1        0.1019
     33 H         144.5590  138.0899  161.7999 H       1  UNL1        0.2104
@<TRIPOS>BOND
     1    20    21    1
     2    21    22   am
     3    22    23    2
     4    22     1    1
     5     1     2   ar
     6     2    12    1
     7    12    13   ar
     8    13    14   ar
     9    14    15   ar
    10    15    16    1
    11    15    17   ar
    12    17    18   ar
    13     2     3   ar
    14     3     4   ar
    15     4     5   ar
    16     5     6   ar
    17     6     7   ar
    18     7     8    1
    19     7     9   ar
    20     9    25    1
    21    25    26    1
    22    26    27    1
    23    27    28    1
    24    28    29    1
    25    29    30    1
    26    30    31    1
    27    30    32    1
    28     9    10   ar
    29    10     1   ar
    30    18    12   ar
    31    10     4   ar
    32    32    26    1
    33    21    24    1
    34    16    19    1
    35     8    11    1
    36    31    33    1
