@<TRIPOS>MOLECULE
*****
 31 34 0 0 0
SMALL
GASTEIGER

@<TRIPOS>ATOM
      1 C         138.3884  138.8955  161.3895 C.3     1  UNL1        0.1014
      2 C         138.4348  139.0962  165.8848 C.ar    1  UNL1        0.0024
      3 C         138.8800  137.8463  165.1852 C.ar    1  UNL1       -0.0001
      4 C         138.8646  137.7794  163.6868 C.ar    1  UNL1       -0.0007
      5 C         138.4039  138.9624  162.8879 C.ar    1  UNL1        0.0213
      6 C         137.9586  140.2124  163.5875 C.ar    1  UNL1        0.1374
      7 F         137.4979  141.3954  162.7886 F       1  UNL1       -0.2045
      8 C         137.9741  140.2793  165.0860 C.ar    1  UNL1        0.0294
      9 C         139.3771  140.1131  168.0820 C.2     1  UNL1        0.0598
     10 C         138.4503  139.1631  167.3832 C.2     1  UNL1        0.0048
     11 O         138.1307  139.9391  170.3549 O.2     1  UNL1       -0.2681
     12 C         139.3925  140.1800  169.5804 C.2     1  UNL1        0.2679
     13 N         140.6697  140.4878  170.3044 N.am    1  UNL1       -0.1934
     14 O         140.6852  140.5547  171.8028 O.3     1  UNL1       -0.2949
     15 H         141.4978  140.6459  169.7960 H       1  UNL1        0.1825
     16 H         139.7948  140.3760  172.1436 H       1  UNL1        0.2414
     17 N         139.2855  139.7926  160.5893 N.3     1  UNL1       -0.2686
     18 C         139.0040  140.0313  159.1354 C.3     1  UNL1        0.0724
     19 C         139.9012  140.9285  158.3352 C.3     1  UNL1        0.0177
     20 C         141.0798  141.5869  158.9889 C.3     1  UNL1        0.0072
     21 C         141.3613  141.3482  160.4429 C.3     1  UNL1        0.0399
     22 C         140.4642  140.4511  161.2430 C.3     1  UNL1        0.0768
     23 C         142.5399  142.0067  161.0966 C.2     1  UNL1       -0.0009
     24 C         143.0061  143.4130  160.8626 C.2     1  UNL1        0.0942
     25 N         144.2135  143.6498  161.7204 N.2     1  UNL1       -0.2482
     26 C         144.4936  142.3898  162.4846 C.2     1  UNL1        0.0631
     27 C         145.5569  142.0361  163.4817 C.3     1  UNL1        0.0717
     28 C         145.5858  140.6667  164.0933 C.2     1  UNL1       -0.0198
     29 C         144.5514  139.6512  163.7077 C.2     1  UNL1       -0.0042
     30 C         143.4881  140.0049  162.7106 C.2     1  UNL1        0.0006
     31 C         143.4592  141.3743  162.0991 C.2     1  UNL1        0.0114
@<TRIPOS>BOND
     1    11    12    2
     2    12     9    1
     3     9    10    2
     4    10     2    1
     5     2     3   ar
     6     3     4   ar
     7     4     5   ar
     8     5     1    1
     9     1    17    1
    10    17    18    1
    11    18    19    1
    12    19    20    1
    13    20    21    1
    14    21    23    1
    15    23    24    2
    16    24    25    1
    17    25    26    2
    18    26    27    1
    19    27    28    1
    20    28    29    2
    21    29    30    1
    22    30    31    2
    23    21    22    1
    24     5     6   ar
    25     6     7    1
    26     6     8   ar
    27    12    13   am
    28    13    14    1
    29     8     2   ar
    30    22    17    1
    31    31    23    1
    32    31    26    1
    33    13    15    1
    34    14    16    1
@<TRIPOS>MOLECULE
*****
 31 34 0 0 0
SMALL
GASTEIGER

@<TRIPOS>ATOM
      1 C         138.4904  138.7178  161.4097 C.3     1  UNL1        0.1014
      2 C         138.4697  139.0646  165.8963 C.ar    1  UNL1        0.0024
      3 C         138.9340  137.7961  165.2443 C.ar    1  UNL1       -0.0001
      4 C         138.9409  137.6805  163.7488 C.ar    1  UNL1       -0.0007
      5 C         138.4835  138.8335  162.9052 C.ar    1  UNL1        0.0213
      6 C         138.0193  140.1021  163.5573 C.ar    1  UNL1        0.1374
      7 F         137.5619  141.2551  162.7138 F       1  UNL1       -0.2045
      8 C         138.0124  140.2176  165.0529 C.ar    1  UNL1        0.0294
      9 C         139.4462  140.0806  168.0791 C.2     1  UNL1        0.0598
     10 C         138.4628  139.1803  167.3918 C.2     1  UNL1        0.0048
     11 O         138.1730  139.9493  170.3400 O.2     1  UNL1       -0.2681
     12 C         139.4392  140.1962  169.5746 C.2     1  UNL1        0.2679
     13 N         140.6984  140.5587  170.3047 N.am    1  UNL1       -0.1934
     14 O         140.6915  140.6743  171.8002 O.3     1  UNL1       -0.2949
     15 H         141.5294  140.7207  169.8023 H       1  UNL1        0.1825
     16 H         139.8011  140.4847  172.1350 H       1  UNL1        0.2414
     17 N         139.2903  139.6835  160.5865 N.3     1  UNL1       -0.2686
     18 C         138.9329  139.9188  159.1488 C.3     1  UNL1        0.0724
     19 C         139.7327  140.8844  158.3255 C.3     1  UNL1        0.0177
     20 C         140.8899  141.6147  158.9399 C.3     1  UNL1        0.0072
     21 C         141.2473  141.3794  160.3776 C.3     1  UNL1        0.0399
     22 C         140.4475  140.4138  161.2008 C.3     1  UNL1        0.0768
     23 C         142.4046  142.1097  160.9920 C.2     1  UNL1       -0.0009
     24 C         143.8566  141.8425  160.7273 C.2     1  UNL1        0.0942
     25 N         144.6623  142.8031  161.5507 N.2     1  UNL1       -0.2482
     26 C         143.7082  143.6641  162.3243 C.2     1  UNL1        0.0631
     27 C         143.9298  144.7829  163.2984 C.3     1  UNL1        0.0717
     28 C         142.7560  145.4732  163.9274 C.2     1  UNL1       -0.0198
     29 C         141.3606  145.0447  163.5821 C.2     1  UNL1       -0.0042
     30 C         141.1390  143.9259  162.6079 C.2     1  UNL1        0.0006
     31 C         142.3128  143.2356  161.9790 C.2     1  UNL1        0.0114
@<TRIPOS>BOND
     1    11    12    2
     2    12     9    1
     3     9    10    2
     4    10     2    1
     5     2     3   ar
     6     3     4   ar
     7     4     5   ar
     8     5     1    1
     9     1    17    1
    10    17    18    1
    11    18    19    1
    12    19    20    1
    13    20    21    1
    14    21    23    1
    15    23    24    2
    16    24    25    1
    17    25    26    2
    18    26    27    1
    19    27    28    1
    20    28    29    2
    21    29    30    1
    22    30    31    2
    23    21    22    1
    24     5     6   ar
    25     6     7    1
    26     6     8   ar
    27    12    13   am
    28    13    14    1
    29     8     2   ar
    30    22    17    1
    31    31    23    1
    32    31    26    1
    33    13    15    1
    34    14    16    1
@<TRIPOS>MOLECULE
*****
 31 34 0 0 0
SMALL
GASTEIGER

@<TRIPOS>ATOM
      1 C         141.0838  137.1147  163.8004 C.3     1  UNL1        0.1014
      2 C         142.2634  139.9315  167.1056 C.ar    1  UNL1        0.0024
      3 C         143.3197  139.2081  166.3239 C.ar    1  UNL1       -0.0001
      4 C         142.9264  138.2692  165.2222 C.ar    1  UNL1       -0.0007
      5 C         141.4769  138.0536  164.9021 C.ar    1  UNL1        0.0213
      6 C         140.4206  138.7770  165.6837 C.ar    1  UNL1        0.1374
      7 F         138.9711  138.5614  165.3636 F       1  UNL1       -0.2045
      8 C         140.8139  139.7160  166.7855 C.ar    1  UNL1        0.0294
      9 C         141.6894  141.1774  169.3120 C.2     1  UNL1        0.0598
     10 C         142.6565  140.8704  168.2073 C.2     1  UNL1        0.0048
     11 O         141.3608  142.0748  171.7279 O.2     1  UNL1       -0.2681
     12 C         142.0826  142.1163  170.4136 C.2     1  UNL1        0.2679
     13 N         143.1977  143.0969  170.2011 N.am    1  UNL1       -0.1934
     14 O         143.5910  144.0359  171.3027 O.3     1  UNL1       -0.2949
     15 H         143.6714  143.1241  169.3385 H       1  UNL1        0.1825
     16 H         143.0292  143.8785  172.0776 H       1  UNL1        0.2414
     17 N         140.6382  137.6580  162.4751 N.3     1  UNL1       -0.2686
     18 C         139.1764  137.8395  162.1921 C.3     1  UNL1        0.0724
     19 C         138.7308  138.3828  160.8669 C.3     1  UNL1        0.0177
     20 C         139.7471  138.7446  159.8246 C.3     1  UNL1        0.0072
     21 C         141.2090  138.5631  160.1077 C.3     1  UNL1        0.0399
     22 C         141.6545  138.0198  161.4329 C.3     1  UNL1        0.0768
     23 C         142.2253  138.9249  159.0654 C.2     1  UNL1       -0.0009
     24 C         142.6399  138.0706  157.9042 C.2     1  UNL1        0.0942
     25 N         143.6762  138.8223  157.1226 N.2     1  UNL1       -0.2482
     26 C         143.9021  140.1411  157.8006 C.2     1  UNL1        0.0631
     27 C         144.8085  141.2924  157.4798 C.3     1  UNL1        0.0717
     28 C         144.8181  142.5071  158.3597 C.2     1  UNL1       -0.0198
     29 C         143.9213  142.5705  159.5605 C.2     1  UNL1       -0.0042
     30 C         143.0150  141.4192  159.8813 C.2     1  UNL1        0.0006
     31 C         143.0054  140.2045  159.0014 C.2     1  UNL1        0.0114
@<TRIPOS>BOND
     1    11    12    2
     2    12     9    1
     3     9    10    2
     4    10     2    1
     5     2     3   ar
     6     3     4   ar
     7     4     5   ar
     8     5     1    1
     9     1    17    1
    10    17    18    1
    11    18    19    1
    12    19    20    1
    13    20    21    1
    14    21    23    1
    15    23    24    2
    16    24    25    1
    17    25    26    2
    18    26    27    1
    19    27    28    1
    20    28    29    2
    21    29    30    1
    22    30    31    2
    23    21    22    1
    24     5     6   ar
    25     6     7    1
    26     6     8   ar
    27    12    13   am
    28    13    14    1
    29     8     2   ar
    30    22    17    1
    31    31    23    1
    32    31    26    1
    33    13    15    1
    34    14    16    1
@<TRIPOS>MOLECULE
*****
 31 34 0 0 0
SMALL
GASTEIGER

@<TRIPOS>ATOM
      1 C         140.2037  139.9617  168.8682 C.3     1  UNL1        0.1014
      2 C         143.1019  143.0033  170.4805 C.ar    1  UNL1        0.0024
      3 C         143.6074  141.8227  169.7057 C.ar    1  UNL1       -0.0001
      4 C         142.6414  140.8088  169.1682 C.ar    1  UNL1       -0.0007
      5 C         141.1697  140.9756  169.4057 C.ar    1  UNL1        0.0213
      6 C         140.6641  142.1562  170.1806 C.ar    1  UNL1        0.1374
      7 F         139.1924  142.3230  170.4181 F       1  UNL1       -0.2045
      8 C         141.6302  143.1701  170.7180 C.ar    1  UNL1        0.0294
      9 C         145.5239  143.9241  170.6699 C.2     1  UNL1        0.0598
     10 C         144.0678  144.0171  171.0180 C.2     1  UNL1        0.0048
     11 O         147.9443  144.5941  171.3354 O.2     1  UNL1       -0.2681
     12 C         146.4898  144.9380  171.2073 C.2     1  UNL1        0.2679
     13 N         146.0013  146.2958  171.6168 N.am    1  UNL1       -0.1934
     14 O         146.9672  147.3098  172.1543 O.3     1  UNL1       -0.2949
     15 H         145.0468  146.5215  171.5327 H       1  UNL1        0.1825
     16 H         147.8593  146.9294  172.1711 H       1  UNL1        0.2414
     17 N         139.5662  140.1705  167.5266 N.3     1  UNL1       -0.2686
     18 C         138.6458  139.1287  166.9632 C.3     1  UNL1        0.0724
     19 C         138.0084  139.3376  165.6216 C.3     1  UNL1        0.0177
     20 C         138.2914  140.5882  164.8433 C.3     1  UNL1        0.0072
     21 C         139.2119  141.6301  165.4067 C.3     1  UNL1        0.0399
     22 C         139.8492  141.4212  166.7483 C.3     1  UNL1        0.0768
     23 C         139.4949  142.8808  164.6284 C.2     1  UNL1       -0.0009
     24 C         138.4745  143.7508  163.9562 C.2     1  UNL1        0.0942
     25 N         139.1969  144.8887  163.2981 N.2     1  UNL1       -0.2482
     26 C         140.6638  144.7220  163.5635 C.2     1  UNL1        0.0631
     27 C         141.8557  145.5398  163.1627 C.3     1  UNL1        0.0717
     28 C         143.2316  145.1166  163.5841 C.2     1  UNL1       -0.0198
     29 C         143.4157  143.8757  164.4064 C.2     1  UNL1       -0.0042
     30 C         142.2239  143.0578  164.8071 C.2     1  UNL1        0.0006
     31 C         140.8480  143.4810  164.3857 C.2     1  UNL1        0.0114
@<TRIPOS>BOND
     1    11    12    2
     2    12     9    1
     3     9    10    2
     4    10     2    1
     5     2     3   ar
     6     3     4   ar
     7     4     5   ar
     8     5     1    1
     9     1    17    1
    10    17    18    1
    11    18    19    1
    12    19    20    1
    13    20    21    1
    14    21    23    1
    15    23    24    2
    16    24    25    1
    17    25    26    2
    18    26    27    1
    19    27    28    1
    20    28    29    2
    21    29    30    1
    22    30    31    2
    23    21    22    1
    24     5     6   ar
    25     6     7    1
    26     6     8   ar
    27    12    13   am
    28    13    14    1
    29     8     2   ar
    30    22    17    1
    31    31    23    1
    32    31    26    1
    33    13    15    1
    34    14    16    1
@<TRIPOS>MOLECULE
*****
 31 34 0 0 0
SMALL
GASTEIGER

@<TRIPOS>ATOM
      1 C         138.9894  137.6113  163.6996 C.3     1  UNL1        0.1014
      2 C         140.1392  139.9256  167.3837 C.ar    1  UNL1        0.0024
      3 C         138.7135  139.5092  167.1741 C.ar    1  UNL1       -0.0001
      4 C         138.3303  138.7378  165.9461 C.ar    1  UNL1       -0.0007
      5 C         139.3727  138.3827  164.9276 C.ar    1  UNL1        0.0213
      6 C         140.7984  138.7991  165.1372 C.ar    1  UNL1        0.1374
      7 F         141.8409  138.4442  164.1188 F       1  UNL1       -0.2045
      8 C         141.1817  139.5706  166.3653 C.ar    1  UNL1        0.0294
      9 C         141.1065  142.0724  168.4816 C.2     1  UNL1        0.0598
     10 C         140.5224  140.6970  168.6117 C.2     1  UNL1        0.0048
     11 O         140.4289  143.3254  170.6543 O.2     1  UNL1       -0.2681
     12 C         141.4898  142.8438  169.7096 C.2     1  UNL1        0.2679
     13 N         142.9340  143.1335  169.9929 N.am    1  UNL1       -0.1934
     14 O         143.3174  143.9049  171.2209 O.3     1  UNL1       -0.2949
     15 H         143.6303  142.8175  169.3729 H       1  UNL1        0.1825
     16 H         142.5182  144.1387  171.7185 H       1  UNL1        0.2414
     17 N         138.9354  138.2996  162.3679 N.3     1  UNL1       -0.2686
     18 C         137.7713  139.1816  162.0262 C.3     1  UNL1        0.0724
     19 C         137.7173  139.8699  160.6946 C.3     1  UNL1        0.0177
     20 C         138.8275  139.6760  159.7046 C.3     1  UNL1        0.0072
     21 C         139.9916  138.7939  160.0463 C.3     1  UNL1        0.0399
     22 C         140.0456  138.1057  161.3780 C.3     1  UNL1        0.0768
     23 C         141.1018  138.6001  159.0563 C.2     1  UNL1       -0.0009
     24 C         142.5452  138.9471  159.2711 C.2     1  UNL1        0.0942
     25 N         143.2988  138.5866  158.0252 N.2     1  UNL1       -0.2482
     26 C         142.3212  138.0169  157.0405 C.2     1  UNL1        0.0631
     27 C         142.4920  137.4917  155.6460 C.3     1  UNL1        0.0717
     28 C         141.3049  136.9747  154.8886 C.2     1  UNL1       -0.0198
     29 C         139.9470  136.9830  155.5259 C.2     1  UNL1       -0.0042
     30 C         139.7762  137.5083  156.9205 C.2     1  UNL1        0.0006
     31 C         140.9633  138.0252  157.6778 C.2     1  UNL1        0.0114
@<TRIPOS>BOND
     1    11    12    2
     2    12     9    1
     3     9    10    2
     4    10     2    1
     5     2     3   ar
     6     3     4   ar
     7     4     5   ar
     8     5     1    1
     9     1    17    1
    10    17    18    1
    11    18    19    1
    12    19    20    1
    13    20    21    1
    14    21    23    1
    15    23    24    2
    16    24    25    1
    17    25    26    2
    18    26    27    1
    19    27    28    1
    20    28    29    2
    21    29    30    1
    22    30    31    2
    23    21    22    1
    24     5     6   ar
    25     6     7    1
    26     6     8   ar
    27    12    13   am
    28    13    14    1
    29     8     2   ar
    30    22    17    1
    31    31    23    1
    32    31    26    1
    33    13    15    1
    34    14    16    1
@<TRIPOS>MOLECULE
*****
 31 34 0 0 0
SMALL
GASTEIGER

@<TRIPOS>ATOM
      1 C         143.5642  138.7157  161.1728 C.3     1  UNL1        0.1014
      2 C         143.1467  138.7481  165.6533 C.ar    1  UNL1        0.0024
      3 C         144.2735  139.4917  164.9996 C.ar    1  UNL1       -0.0001
      4 C         144.4127  139.4808  163.5061 C.ar    1  UNL1       -0.0007
      5 C         143.4250  138.7265  162.6662 C.ar    1  UNL1        0.0213
      6 C         142.2981  137.9829  163.3199 C.ar    1  UNL1        0.1374
      7 F         141.3104  137.2285  162.4801 F       1  UNL1       -0.2045
      8 C         142.1589  137.9937  164.8135 C.ar    1  UNL1        0.0294
      9 C         142.1323  139.7799  167.8111 C.2     1  UNL1        0.0598
     10 C         143.0075  138.7589  167.1467 C.2     1  UNL1        0.0048
     11 O         140.6819  139.4314  169.9383 O.2     1  UNL1       -0.2681
     12 C         141.9932  139.7906  169.3046 C.2     1  UNL1        0.2679
     13 N         143.1653  140.1606  170.1644 N.am    1  UNL1       -0.1934
     14 O         143.0262  140.1713  171.6579 O.3     1  UNL1       -0.2949
     15 H         144.0259  140.3963  169.7485 H       1  UNL1        0.1825
     16 H         142.1221  139.9169  171.9003 H       1  UNL1        0.2414
     17 N         142.7880  139.6925  160.3401 N.3     1  UNL1       -0.2686
     18 C         142.8288  139.6008  158.8434 C.3     1  UNL1        0.0724
     19 C         142.0527  140.5776  158.0107 C.3     1  UNL1        0.0177
     20 C         141.2357  141.6462  158.6746 C.3     1  UNL1        0.0072
     21 C         141.1949  141.7379  160.1714 C.3     1  UNL1        0.0399
     22 C         141.9710  140.7611  161.0040 C.3     1  UNL1        0.0768
     23 C         140.3779  142.8064  160.8353 C.2     1  UNL1       -0.0009
     24 C         140.3130  144.2482  160.4267 C.2     1  UNL1        0.0942
     25 N         139.3774  144.9536  161.3633 N.2     1  UNL1       -0.2482
     26 C         138.8641  143.9478  162.3506 C.2     1  UNL1        0.0631
     27 C         137.9136  144.0688  163.5046 C.3     1  UNL1        0.0717
     28 C         137.5815  142.8627  164.3323 C.2     1  UNL1       -0.0198
     29 C         138.1999  141.5357  164.0060 C.2     1  UNL1       -0.0042
     30 C         139.1504  141.4147  162.8520 C.2     1  UNL1        0.0006
     31 C         139.4825  142.6207  162.0243 C.2     1  UNL1        0.0114
@<TRIPOS>BOND
     1    11    12    2
     2    12     9    1
     3     9    10    2
     4    10     2    1
     5     2     3   ar
     6     3     4   ar
     7     4     5   ar
     8     5     1    1
     9     1    17    1
    10    17    18    1
    11    18    19    1
    12    19    20    1
    13    20    21    1
    14    21    23    1
    15    23    24    2
    16    24    25    1
    17    25    26    2
    18    26    27    1
    19    27    28    1
    20    28    29    2
    21    29    30    1
    22    30    31    2
    23    21    22    1
    24     5     6   ar
    25     6     7    1
    26     6     8   ar
    27    12    13   am
    28    13    14    1
    29     8     2   ar
    30    22    17    1
    31    31    23    1
    32    31    26    1
    33    13    15    1
    34    14    16    1
@<TRIPOS>MOLECULE
*****
 31 34 0 0 0
SMALL
GASTEIGER

@<TRIPOS>ATOM
      1 C         142.8449  138.0742  162.5185 C.3     1  UNL1        0.1014
      2 C         141.9097  139.5837  166.6534 C.ar    1  UNL1        0.0024
      3 C         140.8091  139.0588  165.7798 C.ar    1  UNL1       -0.0001
      4 C         141.1209  138.5557  164.4015 C.ar    1  UNL1       -0.0007
      5 C         142.5333  138.5774  163.8968 C.ar    1  UNL1        0.0213
      6 C         143.6339  139.1022  164.7703 C.ar    1  UNL1        0.1374
      7 F         145.0463  139.1239  164.2657 F       1  UNL1       -0.2045
      8 C         143.3221  139.6053  166.1487 C.ar    1  UNL1        0.0294
      9 C         140.2052  139.9692  168.5759 C.2     1  UNL1        0.0598
     10 C         141.5980  140.0868  168.0316 C.2     1  UNL1        0.0048
     11 O         138.7381  139.8980  170.7189 O.2     1  UNL1       -0.2681
     12 C         139.8936  140.4724  169.9542 C.2     1  UNL1        0.2679
     13 N         140.7376  141.5500  170.5678 N.am    1  UNL1       -0.1934
     14 O         140.4261  142.0532  171.9460 O.3     1  UNL1       -0.2949
     15 H         141.4960  141.9270  170.0658 H       1  UNL1        0.1825
     16 H         139.6551  141.5802  172.2964 H       1  UNL1        0.2414
     17 N         142.4004  138.8543  161.3169 N.3     1  UNL1       -0.2686
     18 C         142.1053  138.1443  160.0289 C.3     1  UNL1        0.0724
     19 C         141.6608  138.9244  158.8274 C.3     1  UNL1        0.0177
     20 C         141.5114  140.4145  158.9137 C.3     1  UNL1        0.0072
     21 C         141.8065  141.1245  160.2018 C.3     1  UNL1        0.0399
     22 C         142.2510  140.3444  161.4033 C.3     1  UNL1        0.0768
     23 C         141.6572  142.6145  160.2881 C.2     1  UNL1       -0.0009
     24 C         142.4086  143.6247  159.4727 C.2     1  UNL1        0.0942
     25 N         141.9459  144.9905  159.8857 N.2     1  UNL1       -0.2482
     26 C         140.9085  144.8244  160.9564 C.2     1  UNL1        0.0631
     27 C         140.1034  145.8206  161.7369 C.3     1  UNL1        0.0717
     28 C         139.1198  145.3483  162.7661 C.2     1  UNL1       -0.0198
     29 C         138.9413  143.8799  163.0148 C.2     1  UNL1       -0.0042
     30 C         139.7464  142.8837  162.2343 C.2     1  UNL1        0.0006
     31 C         140.7301  143.3560  161.2050 C.2     1  UNL1        0.0114
@<TRIPOS>BOND
     1    11    12    2
     2    12     9    1
     3     9    10    2
     4    10     2    1
     5     2     3   ar
     6     3     4   ar
     7     4     5   ar
     8     5     1    1
     9     1    17    1
    10    17    18    1
    11    18    19    1
    12    19    20    1
    13    20    21    1
    14    21    23    1
    15    23    24    2
    16    24    25    1
    17    25    26    2
    18    26    27    1
    19    27    28    1
    20    28    29    2
    21    29    30    1
    22    30    31    2
    23    21    22    1
    24     5     6   ar
    25     6     7    1
    26     6     8   ar
    27    12    13   am
    28    13    14    1
    29     8     2   ar
    30    22    17    1
    31    31    23    1
    32    31    26    1
    33    13    15    1
    34    14    16    1
@<TRIPOS>MOLECULE
*****
 31 34 0 0 0
SMALL
GASTEIGER

@<TRIPOS>ATOM
      1 C         144.6132  139.8043  163.5492 C.3     1  UNL1        0.1014
      2 C         142.8394  141.7042  167.2227 C.ar    1  UNL1        0.0024
      3 C         142.6508  140.2375  166.9714 C.ar    1  UNL1       -0.0001
      4 C         143.2421  139.6042  165.7469 C.ar    1  UNL1       -0.0007
      5 C         144.0220  140.4376  164.7736 C.ar    1  UNL1        0.0213
      6 C         144.2105  141.9044  165.0249 C.ar    1  UNL1        0.1374
      7 F         144.9904  142.7379  164.0517 F       1  UNL1       -0.2045
      8 C         143.6193  142.5377  166.2495 C.ar    1  UNL1        0.0294
      9 C         141.3180  141.5518  169.3232 C.2     1  UNL1        0.0598
     10 C         142.2482  142.3375  168.4471 C.2     1  UNL1        0.0048
     11 O         141.4923  142.1821  171.8376 O.2     1  UNL1       -0.2681
     12 C         140.7268  142.1852  170.5476 C.2     1  UNL1        0.2679
     13 N         139.3702  142.8218  170.4821 N.am    1  UNL1       -0.1934
     14 O         138.7790  143.4552  171.7065 O.3     1  UNL1       -0.2949
     15 H         138.8678  142.8239  169.6354 H       1  UNL1        0.1825
     16 H         139.3985  143.3666  172.4476 H       1  UNL1        0.2414
     17 N         144.0054  140.0639  162.2026 N.3     1  UNL1       -0.2686
     18 C         143.9825  138.9780  161.1681 C.3     1  UNL1        0.0724
     19 C         143.3747  139.2375  159.8216 C.3     1  UNL1        0.0177
     20 C         142.7898  140.5831  159.5095 C.3     1  UNL1        0.0072
     21 C         142.8128  141.6691  160.5440 C.3     1  UNL1        0.0399
     22 C         143.4205  141.4095  161.8905 C.3     1  UNL1        0.0768
     23 C         142.2279  143.0147  160.2319 C.2     1  UNL1       -0.0009
     24 C         142.5049  143.8336  159.0061 C.2     1  UNL1        0.0942
     25 N         141.7115  145.1026  159.1075 N.2     1  UNL1       -0.2482
     26 C         140.9442  145.0679  160.3960 C.2     1  UNL1        0.0631
     27 C         139.9961  146.0446  161.0262 C.3     1  UNL1        0.0717
     28 C         139.3672  145.7309  162.3513 C.2     1  UNL1       -0.0198
     29 C         139.6864  144.4405  163.0462 C.2     1  UNL1       -0.0042
     30 C         140.6344  143.4638  162.4160 C.2     1  UNL1        0.0006
     31 C         141.2633  143.7775  161.0909 C.2     1  UNL1        0.0114
@<TRIPOS>BOND
     1    11    12    2
     2    12     9    1
     3     9    10    2
     4    10     2    1
     5     2     3   ar
     6     3     4   ar
     7     4     5   ar
     8     5     1    1
     9     1    17    1
    10    17    18    1
    11    18    19    1
    12    19    20    1
    13    20    21    1
    14    21    23    1
    15    23    24    2
    16    24    25    1
    17    25    26    2
    18    26    27    1
    19    27    28    1
    20    28    29    2
    21    29    30    1
    22    30    31    2
    23    21    22    1
    24     5     6   ar
    25     6     7    1
    26     6     8   ar
    27    12    13   am
    28    13    14    1
    29     8     2   ar
    30    22    17    1
    31    31    23    1
    32    31    26    1
    33    13    15    1
    34    14    16    1
@<TRIPOS>MOLECULE
*****
 31 34 0 0 0
SMALL
GASTEIGER

@<TRIPOS>ATOM
      1 C         138.6526  139.2682  161.3994 C.3     1  UNL1        0.1014
      2 C         138.5639  139.2828  165.8986 C.ar    1  UNL1        0.0024
      3 C         138.0127  140.4495  165.1338 C.ar    1  UNL1       -0.0001
      4 C         138.0423  140.4446  163.6341 C.ar    1  UNL1       -0.0007
      5 C         138.6231  139.2730  162.8991 C.ar    1  UNL1        0.0213
      6 C         139.1743  138.1063  163.6639 C.ar    1  UNL1        0.1374
      7 F         139.7551  136.9347  162.9290 F       1  UNL1       -0.2045
      8 C         139.1447  138.1112  165.1637 C.ar    1  UNL1        0.0294
      9 C         139.4434  140.2031  168.1634 C.2     1  UNL1        0.0598
     10 C         138.5344  139.2876  167.3983 C.2     1  UNL1        0.0048
     11 O         138.1366  139.9048  170.3890 O.2     1  UNL1       -0.2681
     12 C         139.4138  140.2078  169.6631 C.2     1  UNL1        0.2679
     13 N         140.6614  140.5155  170.4369 N.am    1  UNL1       -0.1934
     14 O         140.6319  140.5203  171.9366 O.3     1  UNL1       -0.2949
     15 H         141.4997  140.7144  169.9604 H       1  UNL1        0.1825
     16 H         139.7368  140.3063  172.2430 H       1  UNL1        0.2414
     17 N         139.9658  139.2386  160.6752 N.3     1  UNL1       -0.2686
     18 C         141.2198  139.6671  161.3781 C.3     1  UNL1        0.0724
     19 C         142.5330  139.6375  160.6538 C.3     1  UNL1        0.0177
     20 C         142.5923  139.1795  159.2267 C.3     1  UNL1        0.0072
     21 C         141.3382  138.7510  158.5238 C.3     1  UNL1        0.0399
     22 C         140.0251  138.7806  159.2480 C.3     1  UNL1        0.0768
     23 C         141.3975  138.2930  157.0966 C.2     1  UNL1       -0.0009
     24 C         140.7538  138.9732  155.9249 C.2     1  UNL1        0.0942
     25 N         141.0694  138.1749  154.6948 N.2     1  UNL1       -0.2482
     26 C         141.9081  137.0014  155.1063 C.2     1  UNL1        0.0631
     27 C         142.5134  135.8758  154.3210 C.3     1  UNL1        0.0717
     28 C         143.3214  134.8231  155.0203 C.2     1  UNL1       -0.0198
     29 C         143.5242  134.8961  156.5047 C.2     1  UNL1       -0.0042
     30 C         142.9189  136.0217  157.2899 C.2     1  UNL1        0.0006
     31 C         142.1109  137.0743  156.5907 C.2     1  UNL1        0.0114
@<TRIPOS>BOND
     1    11    12    2
     2    12     9    1
     3     9    10    2
     4    10     2    1
     5     2     3   ar
     6     3     4   ar
     7     4     5   ar
     8     5     1    1
     9     1    17    1
    10    17    18    1
    11    18    19    1
    12    19    20    1
    13    20    21    1
    14    21    23    1
    15    23    24    2
    16    24    25    1
    17    25    26    2
    18    26    27    1
    19    27    28    1
    20    28    29    2
    21    29    30    1
    22    30    31    2
    23    21    22    1
    24     5     6   ar
    25     6     7    1
    26     6     8   ar
    27    12    13   am
    28    13    14    1
    29     8     2   ar
    30    22    17    1
    31    31    23    1
    32    31    26    1
    33    13    15    1
    34    14    16    1
