@<TRIPOS>MOLECULE
*****
 29 32 0 0 0
SMALL
GASTEIGER

@<TRIPOS>ATOM
      1 N         138.3471  140.9466  160.1851 N.ar    1  UNL1       -0.2465
      2 C         138.5724  142.4101  160.4247 C.ar    1  UNL1        0.1025
      3 C         138.1822  142.7133  161.8410 C.ar    1  UNL1        0.1051
      4 C         137.7158  141.4372  162.4767 C.ar    1  UNL1        0.1578
      5 N         137.8176  140.3453  161.4532 N.ar    1  UNL1       -0.1539
      6 C         139.6000  139.0905  158.8678 C.3     1  UNL1        0.1187
      7 C         139.8586  138.3570  157.5852 C.3     1  UNL1        0.0492
      8 C         139.1230  138.7462  156.3372 C.3     1  UNL1        0.1434
      9 O         138.1287  139.8688  156.3718 O.3     1  UNL1       -0.3516
     10 C         137.8701  140.6022  157.6544 C.3     1  UNL1        0.1674
     11 C         138.6057  140.2131  158.9024 C.3     1  UNL1        0.1488
     12 N         141.0712  138.3122  161.3637 N.1     1  UNL1       -0.1958
     13 C         140.3356  138.7013  160.1157 C.1     1  UNL1        0.0742
     14 C         138.2471  144.0568  162.5050 C.2     1  UNL1        0.2470
     15 N         139.0805  145.1503  161.9053 N.am    1  UNL1       -0.3252
     16 O         137.4787  144.3066  163.7688 O.2     1  UNL1       -0.2702
     17 H         139.5848  144.9864  161.0759 H       1  UNL1        0.1453
     18 H         139.1231  146.0321  162.3412 H       1  UNL1        0.1453
     19 N         137.2323  141.2805  163.8879 N.pl3   1  UNL1       -0.2964
     20 H         136.2777  141.3993  164.0973 H       1  UNL1        0.1537
     21 C         138.2034  140.9429  164.9802 C.ar    1  UNL1        0.0494
     22 C         138.1150  139.6188  165.6796 C.ar    1  UNL1        0.0143
     23 C         139.0860  139.2813  166.7718 C.ar    1  UNL1       -0.0030
     24 C         140.1455  140.2678  167.1647 C.ar    1  UNL1       -0.0224
     25 C         140.2339  141.5917  166.4654 C.ar    1  UNL1       -0.0030
     26 C         139.2629  141.9294  165.3731 C.ar    1  UNL1        0.0143
     27 C         141.1167  139.9302  168.2570 C.3     1  UNL1        0.0224
     28 C         142.4984  139.5413  168.6923 C.3     1  UNL1        0.0047
     29 C         141.4169  139.7344  169.7135 C.3     1  UNL1        0.0047
@<TRIPOS>BOND
     1    12    13    3
     2     6    13    1
     3     6     7    1
     4     7     8    1
     5     8     9    1
     6     9    10    1
     7    10    11    1
     8    11     1    1
     9     1     2   ar
    10     2     3   ar
    11     3    14    1
    12    14    15   am
    13    14    16    2
    14     3     4   ar
    15     4    19    1
    16    19    21    1
    17    21    22   ar
    18    22    23   ar
    19    23    24   ar
    20    24    27    1
    21    27    28    1
    22    28    29    1
    23    24    25   ar
    24    25    26   ar
    25     4     5   ar
    26    11     6    1
    27     5     1   ar
    28    26    21   ar
    29    29    27    1
    30    15    17    1
    31    15    18    1
    32    19    20    1
@<TRIPOS>MOLECULE
*****
 29 32 0 0 0
SMALL
GASTEIGER

@<TRIPOS>ATOM
      1 N         140.0223  140.9751  167.7650 N.ar    1  UNL1       -0.2465
      2 C         139.3493  139.6780  168.1036 C.ar    1  UNL1        0.1025
      3 C         138.5845  139.2236  166.8959 C.ar    1  UNL1        0.1051
      4 C         138.7847  140.2399  165.8109 C.ar    1  UNL1        0.1578
      5 N         139.6733  141.3223  166.3481 N.ar    1  UNL1       -0.1539
      6 C         142.2693  141.3010  169.0279 C.3     1  UNL1        0.1187
      7 C         143.1386  142.1090  169.9452 C.3     1  UNL1        0.0492
      8 C         142.6301  143.3992  170.5169 C.3     1  UNL1        0.1434
      9 O         141.2524  143.8813  170.1714 O.3     1  UNL1       -0.3516
     10 C         140.3832  143.0733  169.2541 C.3     1  UNL1        0.1674
     11 C         140.8916  141.7831  168.6824 C.3     1  UNL1        0.1488
     12 N         143.2862  138.7206  167.8844 N.1     1  UNL1       -0.1958
     13 C         142.7778  140.0108  168.4562 C.1     1  UNL1        0.0742
     14 C         137.7635  137.9725  166.7915 C.2     1  UNL1        0.2470
     15 N         136.7488  137.6509  167.8484 N.am    1  UNL1       -0.3252
     16 O         137.9571  137.0431  165.6302 O.2     1  UNL1       -0.2702
     17 H         136.6217  138.2609  168.6106 H       1  UNL1        0.1453
     18 H         136.2100  136.8298  167.7798 H       1  UNL1        0.1453
     19 N         138.1991  140.1835  164.4311 N.pl3   1  UNL1       -0.2964
     20 H         137.5139  139.5108  164.2143 H       1  UNL1        0.1537
     21 C         138.6577  141.1523  163.3817 C.ar    1  UNL1        0.0494
     22 C         140.0434  141.0463  162.8172 C.ar    1  UNL1        0.0143
     23 C         140.5018  142.0150  161.7679 C.ar    1  UNL1       -0.0030
     24 C         139.5746  143.0898  161.2829 C.ar    1  UNL1       -0.0224
     25 C         138.1890  143.1958  161.8473 C.ar    1  UNL1       -0.0030
     26 C         137.7305  142.2270  162.8967 C.ar    1  UNL1        0.0143
     27 C         140.0331  144.0586  160.2334 C.3     1  UNL1        0.0224
     28 C         140.8329  145.2650  159.8397 C.3     1  UNL1        0.0047
     29 C         140.0274  144.5302  158.8095 C.3     1  UNL1        0.0047
@<TRIPOS>BOND
     1    12    13    3
     2     6    13    1
     3     6     7    1
     4     7     8    1
     5     8     9    1
     6     9    10    1
     7    10    11    1
     8    11     1    1
     9     1     2   ar
    10     2     3   ar
    11     3    14    1
    12    14    15   am
    13    14    16    2
    14     3     4   ar
    15     4    19    1
    16    19    21    1
    17    21    22   ar
    18    22    23   ar
    19    23    24   ar
    20    24    27    1
    21    27    28    1
    22    28    29    1
    23    24    25   ar
    24    25    26   ar
    25     4     5   ar
    26    11     6    1
    27     5     1   ar
    28    26    21   ar
    29    29    27    1
    30    15    17    1
    31    15    18    1
    32    19    20    1
@<TRIPOS>MOLECULE
*****
 29 32 0 0 0
SMALL
GASTEIGER

@<TRIPOS>ATOM
      1 N         139.5928  140.9790  166.4778 N.ar    1  UNL1       -0.2465
      2 C         139.5905  142.4132  166.0382 C.ar    1  UNL1        0.1025
      3 C         138.7656  142.5140  164.7895 C.ar    1  UNL1        0.1051
      4 C         138.2580  141.1420  164.4573 C.ar    1  UNL1        0.1578
      5 N         138.7693  140.1934  165.5007 N.ar    1  UNL1       -0.1539
      6 C         141.7500  140.0698  167.6048 C.3     1  UNL1        0.1187
      7 C         142.4524  139.5181  168.8098 C.3     1  UNL1        0.0492
      8 C         141.7002  139.3238  170.0929 C.3     1  UNL1        0.1434
      9 O         140.2455  139.6812  170.1710 O.3     1  UNL1       -0.3516
     10 C         139.5431  140.2330  168.9660 C.3     1  UNL1        0.1674
     11 C         140.2953  140.4273  167.6829 C.3     1  UNL1        0.1488
     12 N         143.2545  140.4584  165.0385 N.1     1  UNL1       -0.1958
     13 C         142.5022  140.2641  166.3217 C.1     1  UNL1        0.0742
     14 C         138.4956  143.7667  164.0099 C.2     1  UNL1        0.2470
     15 N         139.1716  145.0495  164.3940 N.am    1  UNL1       -0.3252
     16 O         137.5496  143.7366  162.8462 O.2     1  UNL1       -0.2702
     17 H         139.7925  145.0692  165.1577 H       1  UNL1        0.1453
     18 H         138.9944  145.8717  163.8823 H       1  UNL1        0.1453
     19 N         137.3914  140.7820  163.2871 N.pl3   1  UNL1       -0.2964
     20 H         136.4201  140.9376  163.3276 H       1  UNL1        0.1537
     21 C         138.0046  140.1850  162.0553 C.ar    1  UNL1        0.0494
     22 C         138.5401  138.7842  162.0874 C.ar    1  UNL1        0.0143
     23 C         139.1533  138.1873  160.8556 C.ar    1  UNL1       -0.0030
     24 C         139.2311  138.9911  159.5916 C.ar    1  UNL1       -0.0224
     25 C         138.6957  140.3918  159.5594 C.ar    1  UNL1       -0.0030
     26 C         138.0825  140.9888  160.7912 C.ar    1  UNL1        0.0143
     27 C         139.8444  138.3941  158.3596 C.3     1  UNL1        0.0224
     28 C         141.0599  138.0060  157.5709 C.3     1  UNL1        0.0047
     29 C         139.6910  137.7481  157.0146 C.3     1  UNL1        0.0047
@<TRIPOS>BOND
     1    12    13    3
     2     6    13    1
     3     6     7    1
     4     7     8    1
     5     8     9    1
     6     9    10    1
     7    10    11    1
     8    11     1    1
     9     1     2   ar
    10     2     3   ar
    11     3    14    1
    12    14    15   am
    13    14    16    2
    14     3     4   ar
    15     4    19    1
    16    19    21    1
    17    21    22   ar
    18    22    23   ar
    19    23    24   ar
    20    24    27    1
    21    27    28    1
    22    28    29    1
    23    24    25   ar
    24    25    26   ar
    25     4     5   ar
    26    11     6    1
    27     5     1   ar
    28    26    21   ar
    29    29    27    1
    30    15    17    1
    31    15    18    1
    32    19    20    1
@<TRIPOS>MOLECULE
*****
 29 32 0 0 0
SMALL
GASTEIGER

@<TRIPOS>ATOM
      1 N         140.1829  142.4648  166.7776 N.ar    1  UNL1       -0.2465
      2 C         139.6360  141.1886  166.2098 C.ar    1  UNL1        0.1025
      3 C         138.7948  141.5349  165.0171 C.ar    1  UNL1        0.1051
      4 C         138.8218  143.0251  164.8478 C.ar    1  UNL1        0.1578
      5 N         139.6797  143.5998  165.9358 N.ar    1  UNL1       -0.1539
      6 C         142.5353  142.2572  167.8607 C.3     1  UNL1        0.1187
      7 C         143.4285  142.3773  169.0597 C.3     1  UNL1        0.0492
      8 C         142.8626  142.8251  170.3747 C.3     1  UNL1        0.1434
      9 O         141.4035  143.1528  170.4907 O.3     1  UNL1       -0.3516
     10 C         140.5103  143.0327  169.2916 C.3     1  UNL1        0.1674
     11 C         141.0762  142.5849  167.9766 C.3     1  UNL1        0.1488
     12 N         143.6672  141.3616  165.2307 N.1     1  UNL1       -0.1958
     13 C         143.1013  141.8094  166.5457 C.1     1  UNL1        0.0742
     14 C         138.0563  140.5619  164.1466 C.2     1  UNL1        0.2470
     15 N         136.8856  141.0241  163.3307 N.am    1  UNL1       -0.3252
     16 O         138.4885  139.1265  164.0921 O.2     1  UNL1       -0.2702
     17 H         136.6020  141.9662  163.3665 H       1  UNL1        0.1453
     18 H         136.4009  140.3855  162.7593 H       1  UNL1        0.1453
     19 N         138.1150  143.8039  163.7782 N.pl3   1  UNL1       -0.2964
     20 H         137.1793  144.0810  163.9080 H       1  UNL1        0.1537
     21 C         138.8339  144.1604  162.5110 C.ar    1  UNL1        0.0494
     22 C         138.9184  143.1659  161.3913 C.ar    1  UNL1        0.0143
     23 C         139.6374  143.5225  160.1241 C.ar    1  UNL1       -0.0030
     24 C         140.2718  144.8737  159.9765 C.ar    1  UNL1       -0.0224
     25 C         140.1873  145.8682  161.0961 C.ar    1  UNL1       -0.0030
     26 C         139.4684  145.5116  162.3634 C.ar    1  UNL1        0.0143
     27 C         140.9908  145.2303  158.7092 C.3     1  UNL1        0.0224
     28 C         140.9852  145.8473  157.3420 C.3     1  UNL1        0.0047
     29 C         142.2417  145.2310  157.8815 C.3     1  UNL1        0.0047
@<TRIPOS>BOND
     1    12    13    3
     2     6    13    1
     3     6     7    1
     4     7     8    1
     5     8     9    1
     6     9    10    1
     7    10    11    1
     8    11     1    1
     9     1     2   ar
    10     2     3   ar
    11     3    14    1
    12    14    15   am
    13    14    16    2
    14     3     4   ar
    15     4    19    1
    16    19    21    1
    17    21    22   ar
    18    22    23   ar
    19    23    24   ar
    20    24    27    1
    21    27    28    1
    22    28    29    1
    23    24    25   ar
    24    25    26   ar
    25     4     5   ar
    26    11     6    1
    27     5     1   ar
    28    26    21   ar
    29    29    27    1
    30    15    17    1
    31    15    18    1
    32    19    20    1
@<TRIPOS>MOLECULE
*****
 29 32 0 0 0
SMALL
GASTEIGER

@<TRIPOS>ATOM
      1 N         142.2853  141.2885  166.5997 N.ar    1  UNL1       -0.2465
      2 C         143.2420  140.3742  165.8934 C.ar    1  UNL1        0.1025
      3 C         143.9235  141.1612  164.8135 C.ar    1  UNL1        0.1051
      4 C         143.3880  142.5618  164.8523 C.ar    1  UNL1        0.1578
      5 N         142.3756  142.6405  165.9562 N.ar    1  UNL1       -0.1539
      6 C         141.7778  141.2950  169.1477 C.3     1  UNL1        0.1187
      7 C         140.8872  140.9227  170.2958 C.3     1  UNL1        0.0492
      8 C         139.6135  140.1715  170.0440 C.3     1  UNL1        0.1434
      9 O         139.2304  139.7927  168.6442 O.3     1  UNL1       -0.3516
     10 C         140.1210  140.1650  167.4961 C.3     1  UNL1        0.1674
     11 C         141.3947  140.9162  167.7479 C.3     1  UNL1        0.1488
     12 N         144.3252  142.7974  169.6513 N.1     1  UNL1       -0.1958
     13 C         143.0515  142.0462  169.3995 C.1     1  UNL1        0.0742
     14 C         144.9588  140.6391  163.8617 C.2     1  UNL1        0.2470
     15 N         144.9333  139.1994  163.4417 N.am    1  UNL1       -0.3252
     16 O         146.0195  141.5568  163.3301 O.2     1  UNL1       -0.2702
     17 H         144.2372  138.5970  163.7906 H       1  UNL1        0.1453
     18 H         145.6128  138.8568  162.8171 H       1  UNL1        0.1453
     19 N         143.7938  143.6863  163.9463 N.pl3   1  UNL1       -0.2964
     20 H         144.5624  144.2549  164.1812 H       1  UNL1        0.1537
     21 C         143.0284  143.9445  162.6823 C.ar    1  UNL1        0.0494
     22 C         143.4555  143.2929  161.4005 C.ar    1  UNL1        0.0143
     23 C         142.6901  143.5512  160.1367 C.ar    1  UNL1       -0.0030
     24 C         141.4977  144.4609  160.1546 C.ar    1  UNL1       -0.0224
     25 C         141.0706  145.1125  161.4363 C.ar    1  UNL1       -0.0030
     26 C         141.8359  144.8543  162.7002 C.ar    1  UNL1        0.0143
     27 C         140.7322  144.7192  158.8906 C.3     1  UNL1        0.0224
     28 C         140.2999  145.6564  157.8022 C.3     1  UNL1        0.0047
     29 C         139.8388  144.2291  157.7898 C.3     1  UNL1        0.0047
@<TRIPOS>BOND
     1    12    13    3
     2     6    13    1
     3     6     7    1
     4     7     8    1
     5     8     9    1
     6     9    10    1
     7    10    11    1
     8    11     1    1
     9     1     2   ar
    10     2     3   ar
    11     3    14    1
    12    14    15   am
    13    14    16    2
    14     3     4   ar
    15     4    19    1
    16    19    21    1
    17    21    22   ar
    18    22    23   ar
    19    23    24   ar
    20    24    27    1
    21    27    28    1
    22    28    29    1
    23    24    25   ar
    24    25    26   ar
    25     4     5   ar
    26    11     6    1
    27     5     1   ar
    28    26    21   ar
    29    29    27    1
    30    15    17    1
    31    15    18    1
    32    19    20    1
@<TRIPOS>MOLECULE
*****
 29 32 0 0 0
SMALL
GASTEIGER

@<TRIPOS>ATOM
      1 N         140.7749  140.7432  167.1646 N.ar    1  UNL1       -0.2465
      2 C         141.1066  139.4191  166.5428 C.ar    1  UNL1        0.1025
      3 C         140.0612  139.1170  165.5104 C.ar    1  UNL1        0.1051
      4 C         139.0833  140.2544  165.4942 C.ar    1  UNL1        0.1578
      5 N         139.5245  141.2594  166.5166 N.ar    1  UNL1       -0.1539
      6 C         141.0443  141.4337  169.6548 C.3     1  UNL1        0.1187
      7 C         141.8258  142.1209  170.7350 C.3     1  UNL1        0.0492
      8 C         143.1194  142.8049  170.4054 C.3     1  UNL1        0.1434
      9 O         143.6315  142.8016  168.9956 O.3     1  UNL1       -0.3516
     10 C         142.8500  142.1144  167.9153 C.3     1  UNL1        0.1674
     11 C         141.5564  141.4304  168.2449 C.3     1  UNL1        0.1488
     12 N         138.4570  140.0657  170.3140 N.1     1  UNL1       -0.1958
     13 C         139.7506  140.7497  169.9844 C.1     1  UNL1        0.0742
     14 C         140.0036  137.8925  164.6459 C.2     1  UNL1        0.2470
     15 N         141.2675  137.1713  164.2819 N.am    1  UNL1       -0.3252
     16 O         138.6822  137.3891  164.1454 O.2     1  UNL1       -0.2702
     17 H         142.1348  137.5017  164.6104 H       1  UNL1        0.1453
     18 H         141.2298  136.3676  163.7145 H       1  UNL1        0.1453
     19 N         137.8764  140.3670  164.6107 N.pl3   1  UNL1       -0.2964
     20 H         136.9912  140.1019  164.9504 H       1  UNL1        0.1537
     21 C         138.0181  140.8836  163.2096 C.ar    1  UNL1        0.0494
     22 C         137.8917  139.9438  162.0473 C.ar    1  UNL1        0.0143
     23 C         138.0334  140.4604  160.6463 C.ar    1  UNL1       -0.0030
     24 C         138.3015  141.9168  160.4075 C.ar    1  UNL1       -0.0224
     25 C         138.4278  142.8566  161.5697 C.ar    1  UNL1       -0.0030
     26 C         138.2861  142.3400  162.9708 C.ar    1  UNL1        0.0143
     27 C         138.4432  142.4335  159.0064 C.3     1  UNL1        0.0224
     28 C         137.9373  142.5219  157.5970 C.3     1  UNL1        0.0047
     29 C         139.1946  143.2399  157.9890 C.3     1  UNL1        0.0047
@<TRIPOS>BOND
     1    12    13    3
     2     6    13    1
     3     6     7    1
     4     7     8    1
     5     8     9    1
     6     9    10    1
     7    10    11    1
     8    11     1    1
     9     1     2   ar
    10     2     3   ar
    11     3    14    1
    12    14    15   am
    13    14    16    2
    14     3     4   ar
    15     4    19    1
    16    19    21    1
    17    21    22   ar
    18    22    23   ar
    19    23    24   ar
    20    24    27    1
    21    27    28    1
    22    28    29    1
    23    24    25   ar
    24    25    26   ar
    25     4     5   ar
    26    11     6    1
    27     5     1   ar
    28    26    21   ar
    29    29    27    1
    30    15    17    1
    31    15    18    1
    32    19    20    1
@<TRIPOS>MOLECULE
*****
 29 32 0 0 0
SMALL
GASTEIGER

@<TRIPOS>ATOM
      1 N         139.2611  142.1614  160.5118 N.ar    1  UNL1       -0.2465
      2 C         139.7183  140.7345  160.4415 C.ar    1  UNL1        0.1025
      3 C         139.1214  139.9987  161.6044 C.ar    1  UNL1        0.1051
      4 C         138.2953  140.9709  162.3934 C.ar    1  UNL1        0.1578
      5 N         138.3816  142.3075  161.7181 N.ar    1  UNL1       -0.1539
      6 C         140.5178  144.3719  159.9787 C.3     1  UNL1        0.1187
      7 C         140.8770  145.4614  159.0123 C.3     1  UNL1        0.0492
      8 C         140.3386  145.4300  157.6126 C.3     1  UNL1        0.1434
      9 O         139.4410  144.3090  157.1793 O.3     1  UNL1       -0.3516
     10 C         139.0819  143.2195  158.1457 C.3     1  UNL1        0.1674
     11 C         139.6203  143.2510  159.5454 C.3     1  UNL1        0.1488
     12 N         141.5947  144.4348  162.7780 N.1     1  UNL1       -0.1958
     13 C         141.0563  144.4034  161.3783 C.1     1  UNL1        0.0742
     14 C         139.3164  138.5458  161.9224 C.2     1  UNL1        0.2470
     15 N         138.1284  137.6374  162.0381 N.am    1  UNL1       -0.3252
     16 O         140.6993  138.0014  162.1248 O.2     1  UNL1       -0.2702
     17 H         137.2207  137.9947  161.9053 H       1  UNL1        0.1453
     18 H         138.2563  136.6838  162.2469 H       1  UNL1        0.1453
     19 N         137.5191  140.6608  163.6390 N.pl3   1  UNL1       -0.2964
     20 H         136.5405  140.5620  163.5974 H       1  UNL1        0.1537
     21 C         138.2341  140.5014  164.9479 C.ar    1  UNL1        0.0494
     22 C         139.2196  141.5398  165.3956 C.ar    1  UNL1        0.0143
     23 C         139.9345  141.3803  166.7046 C.ar    1  UNL1       -0.0030
     24 C         139.6639  140.1824  167.5658 C.ar    1  UNL1       -0.0224
     25 C         138.6784  139.1441  167.1182 C.ar    1  UNL1       -0.0030
     26 C         137.9635  139.3035  165.8092 C.ar    1  UNL1        0.0143
     27 C         140.3789  140.0229  168.8749 C.3     1  UNL1        0.0224
     28 C         140.3834  140.1139  170.3721 C.3     1  UNL1        0.0047
     29 C         141.6127  139.6558  169.6449 C.3     1  UNL1        0.0047
@<TRIPOS>BOND
     1    12    13    3
     2     6    13    1
     3     6     7    1
     4     7     8    1
     5     8     9    1
     6     9    10    1
     7    10    11    1
     8    11     1    1
     9     1     2   ar
    10     2     3   ar
    11     3    14    1
    12    14    15   am
    13    14    16    2
    14     3     4   ar
    15     4    19    1
    16    19    21    1
    17    21    22   ar
    18    22    23   ar
    19    23    24   ar
    20    24    27    1
    21    27    28    1
    22    28    29    1
    23    24    25   ar
    24    25    26   ar
    25     4     5   ar
    26    11     6    1
    27     5     1   ar
    28    26    21   ar
    29    29    27    1
    30    15    17    1
    31    15    18    1
    32    19    20    1
@<TRIPOS>MOLECULE
*****
 29 32 0 0 0
SMALL
GASTEIGER

@<TRIPOS>ATOM
      1 N         142.5556  143.3165  160.6103 N.ar    1  UNL1       -0.2465
      2 C         143.8046  143.5381  161.4108 C.ar    1  UNL1        0.1025
      3 C         143.7257  142.6815  162.6396 C.ar    1  UNL1        0.1051
      4 C         142.4279  141.9304  162.5985 C.ar    1  UNL1        0.1578
      5 N         141.7047  142.3229  161.3443 N.ar    1  UNL1       -0.1539
      6 C         141.1293  145.0044  159.2440 C.3     1  UNL1        0.1187
      7 C         140.7906  145.6611  157.9386 C.3     1  UNL1        0.0492
      8 C         141.5395  145.2865  156.6941 C.3     1  UNL1        0.1434
      9 O         142.6270  144.2552  156.7549 O.3     1  UNL1       -0.3516
     10 C         142.9657  143.5986  158.0603 C.3     1  UNL1        0.1674
     11 C         142.2169  143.9732  159.3048 C.3     1  UNL1        0.1488
     12 N         139.6316  145.7536  161.7331 N.1     1  UNL1       -0.1958
     13 C         140.3805  145.3790  160.4886 C.1     1  UNL1        0.0742
     14 C         144.7626  142.5916  163.7198 C.2     1  UNL1        0.2470
     15 N         145.9959  141.7644  163.5087 N.am    1  UNL1       -0.3252
     16 O         144.5661  143.3290  165.0112 O.2     1  UNL1       -0.2702
     17 H         146.1249  141.2805  162.6611 H       1  UNL1        0.1453
     18 H         146.6764  141.7055  164.2177 H       1  UNL1        0.1453
     19 N         141.9391  140.9577  163.6305 N.pl3   1  UNL1       -0.2964
     20 H         141.8674  140.0009  163.4101 H       1  UNL1        0.1537
     21 C         141.5595  141.4429  164.9981 C.ar    1  UNL1        0.0494
     22 C         140.6883  142.6546  165.1491 C.ar    1  UNL1        0.0143
     23 C         140.3087  143.1397  166.5167 C.ar    1  UNL1       -0.0030
     24 C         140.8004  142.4131  167.7334 C.ar    1  UNL1       -0.0224
     25 C         141.6715  141.2015  167.5825 C.ar    1  UNL1       -0.0030
     26 C         142.0511  140.7163  166.2148 C.ar    1  UNL1        0.0143
     27 C         140.4208  142.8983  169.1012 C.3     1  UNL1        0.0224
     28 C         139.9430  142.6137  170.4943 C.3     1  UNL1        0.0047
     29 C         140.2411  144.0232  170.0770 C.3     1  UNL1        0.0047
@<TRIPOS>BOND
     1    12    13    3
     2     6    13    1
     3     6     7    1
     4     7     8    1
     5     8     9    1
     6     9    10    1
     7    10    11    1
     8    11     1    1
     9     1     2   ar
    10     2     3   ar
    11     3    14    1
    12    14    15   am
    13    14    16    2
    14     3     4   ar
    15     4    19    1
    16    19    21    1
    17    21    22   ar
    18    22    23   ar
    19    23    24   ar
    20    24    27    1
    21    27    28    1
    22    28    29    1
    23    24    25   ar
    24    25    26   ar
    25     4     5   ar
    26    11     6    1
    27     5     1   ar
    28    26    21   ar
    29    29    27    1
    30    15    17    1
    31    15    18    1
    32    19    20    1
@<TRIPOS>MOLECULE
*****
 29 32 0 0 0
SMALL
GASTEIGER

@<TRIPOS>ATOM
      1 N         141.6733  141.9732  160.8762 N.ar    1  UNL1       -0.2465
      2 C         141.2345  140.5907  160.4940 C.ar    1  UNL1        0.1025
      3 C         141.4850  139.6850  161.6632 C.ar    1  UNL1        0.1051
      4 C         142.0786  140.5078  162.7681 C.ar    1  UNL1        0.1578
      5 N         142.1950  141.9220  162.2817 N.ar    1  UNL1       -0.1539
      6 C         140.3856  144.0687  160.0390 C.3     1  UNL1        0.1187
      7 C         140.3152  145.2882  159.1686 C.3     1  UNL1        0.0492
      8 C         141.4620  145.6320  158.2650 C.3     1  UNL1        0.1434
      9 O         142.6793  144.7562  158.2318 O.3     1  UNL1       -0.3516
     10 C         142.7497  143.5366  159.1022 C.3     1  UNL1        0.1674
     11 C         141.6029  143.1928  160.0058 C.3     1  UNL1        0.1488
     12 N         138.0919  143.3811  161.8463 N.1     1  UNL1       -0.1958
     13 C         139.2387  143.7249  160.9426 C.1     1  UNL1        0.0742
     14 C         141.1930  138.2147  161.7180 C.2     1  UNL1        0.2470
     15 N         142.3109  137.2351  161.9199 N.am    1  UNL1       -0.3252
     16 O         139.7833  137.7240  161.5709 O.2     1  UNL1       -0.2702
     17 H         143.2362  137.5572  162.0164 H       1  UNL1        0.1453
     18 H         142.1193  136.2701  161.9559 H       1  UNL1        0.1453
     19 N         142.4845  140.0048  164.1216 N.pl3   1  UNL1       -0.2964
     20 H         143.0680  139.2156  164.1989 H       1  UNL1        0.1537
     21 C         142.0015  140.7042  165.3575 C.ar    1  UNL1        0.0494
     22 C         142.9814  141.3901  166.2627 C.ar    1  UNL1        0.0143
     23 C         142.4983  142.0895  167.4986 C.ar    1  UNL1       -0.0030
     24 C         141.0353  142.1030  167.8293 C.ar    1  UNL1       -0.0224
     25 C         140.0554  141.4171  166.9242 C.ar    1  UNL1       -0.0030
     26 C         140.5385  140.7177  165.6883 C.ar    1  UNL1        0.0143
     27 C         140.5521  142.8024  169.0652 C.3     1  UNL1        0.0224
     28 C         139.8750  142.7569  170.4029 C.3     1  UNL1        0.0047
     29 C         140.3925  144.0593  169.8682 C.3     1  UNL1        0.0047
@<TRIPOS>BOND
     1    12    13    3
     2     6    13    1
     3     6     7    1
     4     7     8    1
     5     8     9    1
     6     9    10    1
     7    10    11    1
     8    11     1    1
     9     1     2   ar
    10     2     3   ar
    11     3    14    1
    12    14    15   am
    13    14    16    2
    14     3     4   ar
    15     4    19    1
    16    19    21    1
    17    21    22   ar
    18    22    23   ar
    19    23    24   ar
    20    24    27    1
    21    27    28    1
    22    28    29    1
    23    24    25   ar
    24    25    26   ar
    25     4     5   ar
    26    11     6    1
    27     5     1   ar
    28    26    21   ar
    29    29    27    1
    30    15    17    1
    31    15    18    1
    32    19    20    1
