@<TRIPOS>MOLECULE
*****
 43 49 0 0 0
SMALL
GASTEIGER

@<TRIPOS>ATOM
      1 C         140.8753  141.1795  161.0482 C.3     1  UNL1        0.0235
      2 C         140.2584  140.0279  160.3111 C.3     1  UNL1        0.0257
      3 C         141.0138  139.3553  159.2034 C.3     1  UNL1        0.0940
      4 N         142.3861  139.8342  158.8328 N.am    1  UNL1       -0.2761
      5 C         143.1416  139.1616  157.7252 C.2     1  UNL1        0.2490
      6 O         144.5139  139.6405  157.3546 O.2     1  UNL1       -0.2699
      7 C         143.0030  140.9858  159.5700 C.3     1  UNL1        0.0940
      8 C         142.2477  141.6584  160.6776 C.3     1  UNL1        0.0257
      9 C         141.0349  142.2999  162.0328 C.ar    1  UNL1       -0.0226
     10 C         141.2481  141.9964  163.4861 C.ar    1  UNL1       -0.0043
     11 C         141.4077  143.1169  164.4707 C.ar    1  UNL1       -0.0003
     12 C         141.3541  144.5407  164.0017 C.ar    1  UNL1       -0.0000
     13 C         141.1408  144.8441  162.5482 C.ar    1  UNL1       -0.0003
     14 C         140.9813  143.7236  161.5638 C.ar    1  UNL1       -0.0043
     15 C         142.5246  138.0100  156.9881 C.ar    1  UNL1        0.0536
     16 C         141.4527  138.2596  155.9690 C.ar    1  UNL1        0.0045
     17 C         140.8357  137.1080  155.2320 C.ar    1  UNL1        0.0002
     18 C         141.2907  135.7067  155.5141 C.ar    1  UNL1        0.0011
     19 C         142.3627  135.4572  156.5332 C.ar    1  UNL1        0.0141
     20 C         142.9796  136.6088  157.2702 C.ar    1  UNL1        0.0056
     21 C         142.8176  134.0560  156.8153 C.2     1  UNL1        0.0729
     22 O         144.0570  133.8188  157.6265 O.co2   1  UNL1       -0.5446
     23 O         142.0334  132.8919  156.2863 O.co2   1  UNL1       -0.5446
     24 C         139.5584  141.0896  161.7607 C.3     1  UNL1        0.0215
     25 C         138.2910  141.4465  161.0421 C.3     1  UNL1        0.0723
     26 C         138.2599  141.3851  160.9010 C.3     1  UNL1        0.0893
     27 C         138.7512  142.6772  160.3185 C.3     1  UNL1        0.0386
     28 C         138.7618  142.8735  158.8314 C.3     1  UNL1        0.0594
     29 C         138.5985  142.6341  157.3597 C.3     1  UNL1        0.0174
     30 C         138.0374  141.2555  157.1737 C.3     1  UNL1        0.0174
     31 C         137.8539  140.6428  158.5305 C.3     1  UNL1        0.0594
     32 C         137.7793  140.2894  159.9964 C.3     1  UNL1        0.0386
     33 N         138.3016  141.6428  159.5551 N.3     1  UNL1       -0.2751
     34 C         137.6926  143.5797  162.7871 C.3     1  UNL1        0.0718
     35 C         137.9715  142.2464  163.4150 C.ar    1  UNL1        0.1207
     36 N         138.0651  141.6117  164.7709 N.ar    1  UNL1       -0.2309
     37 C         138.4007  140.1619  164.5819 C.ar    1  UNL1        0.0983
     38 C         138.6173  139.0461  165.5606 C.ar    1  UNL1        0.0206
     39 C         138.9478  137.6689  165.0666 C.ar    1  UNL1        0.0016
     40 C         139.0616  137.4076  163.5939 C.ar    1  UNL1        0.0016
     41 C         138.8449  138.5234  162.6153 C.ar    1  UNL1        0.0188
     42 C         138.5145  139.9006  163.1093 C.ar    1  UNL1        0.0785
     43 N         138.2492  141.1889  162.3881 N.ar    1  UNL1       -0.3167
@<TRIPOS>UNITY_ATOM_ATTR
22 1
charge -1
@<TRIPOS>BOND
     1    34    35    1
     2    35    36   ar
     3    36    37   ar
     4    37    38   ar
     5    38    39   ar
     6    39    40   ar
     7    40    41   ar
     8    41    42   ar
     9    42    43   ar
    10    43    26    1
    11    26    27    1
    12    27    28    1
    13    28    29    1
    14    29    30    1
    15    30    31    1
    16    31    32    1
    17    31    33    1
    18    33    25    1
    19    25    24    1
    20    24     1    1
    21     1     9    1
    22     9    10   ar
    23    10    11   ar
    24    11    12   ar
    25    12    13   ar
    26    13    14   ar
    27     1     2    1
    28     2     3    1
    29     3     4    1
    30     4     5   am
    31     5     6    2
    32     5    15    1
    33    15    16   ar
    34    16    17   ar
    35    17    18   ar
    36    18    19   ar
    37    19    21    1
    38    21    22   ar
    39    21    23   ar
    40    19    20   ar
    41     4     7    1
    42     7     8    1
    43    43    35   ar
    44    32    26    1
    45     8     1    1
    46    42    37   ar
    47    33    28    1
    48    14     9   ar
    49    20    15   ar
@<TRIPOS>MOLECULE
*****
 43 49 0 0 0
SMALL
GASTEIGER

@<TRIPOS>ATOM
      1 C         141.1955  140.2408  163.1680 C.3     1  UNL1        0.0235
      2 C         140.7232  140.7440  164.4998 C.3     1  UNL1        0.0257
      3 C         141.4639  140.3684  165.7490 C.3     1  UNL1        0.0940
      4 N         142.6768  139.4898  165.6663 N.am    1  UNL1       -0.2761
      5 C         143.4175  139.1143  166.9155 C.2     1  UNL1        0.2490
      6 O         144.6304  138.2357  166.8328 O.2     1  UNL1       -0.2699
      7 C         143.1490  138.9867  164.3345 C.3     1  UNL1        0.0940
      8 C         142.4084  139.3622  163.0853 C.3     1  UNL1        0.0257
      9 C         141.2535  140.0157  161.6860 C.ar    1  UNL1       -0.0226
     10 C         140.8435  138.6919  161.1120 C.ar    1  UNL1       -0.0043
     11 C         140.9016  138.4668  159.6301 C.ar    1  UNL1       -0.0003
     12 C         141.3697  139.5654  158.7223 C.ar    1  UNL1       -0.0000
     13 C         141.7796  140.8892  159.2965 C.ar    1  UNL1       -0.0003
     14 C         141.7215  141.1142  160.7784 C.ar    1  UNL1       -0.0043
     15 C         142.9452  139.6175  168.2473 C.ar    1  UNL1        0.0536
     16 C         142.3432  138.6657  169.2382 C.ar    1  UNL1        0.0045
     17 C         141.8709  139.1690  170.5700 C.ar    1  UNL1        0.0002
     18 C         142.0006  140.6240  170.9109 C.ar    1  UNL1        0.0011
     19 C         142.6026  141.5757  169.9201 C.ar    1  UNL1        0.0141
     20 C         143.0749  141.0724  168.5883 C.ar    1  UNL1        0.0056
     21 C         142.7323  143.0306  170.2610 C.2     1  UNL1        0.0729
     22 O         144.0808  143.6120  170.5669 O.co2   1  UNL1       -0.5446
     23 O         141.5135  143.9043  170.2961 O.co2   1  UNL1       -0.5446
     24 C         140.0028  141.0412  162.7360 C.3     1  UNL1        0.0215
     25 C         138.6255  140.6220  163.1574 C.3     1  UNL1        0.0723
     26 C         138.5899  140.5887  163.3066 C.3     1  UNL1        0.0893
     27 C         138.8124  139.1475  162.9550 C.3     1  UNL1        0.0386
     28 C         138.6385  138.0851  163.9996 C.3     1  UNL1        0.0594
     29 C         138.3627  137.3995  165.3049 C.3     1  UNL1        0.0174
     30 C         138.0053  138.4502  166.3140 C.3     1  UNL1        0.0174
     31 C         138.0602  139.7853  165.6324 C.3     1  UNL1        0.0594
     32 C         138.1934  140.9674  164.7027 C.3     1  UNL1        0.0386
     33 N         138.4516  139.5597  164.2019 N.3     1  UNL1       -0.2751
     34 C         137.6928  140.2357  160.5198 C.3     1  UNL1        0.0718
     35 C         138.3382  141.5545  160.8269 C.ar    1  UNL1        0.1207
     36 N         138.7052  142.8402  160.1471 N.ar    1  UNL1       -0.2309
     37 C         139.3577  143.7314  161.1621 C.ar    1  UNL1        0.0983
     38 C         139.9235  145.1172  161.0649 C.ar    1  UNL1        0.0206
     39 C         140.5255  145.7680  162.2749 C.ar    1  UNL1        0.0016
     40 C         140.5617  145.0330  163.5820 C.ar    1  UNL1        0.0016
     41 C         139.9959  143.6472  163.6791 C.ar    1  UNL1        0.0188
     42 C         139.3939  142.9964  162.4692 C.ar    1  UNL1        0.0785
     43 N         138.7638  141.6510  162.2620 N.ar    1  UNL1       -0.3167
@<TRIPOS>UNITY_ATOM_ATTR
22 1
charge -1
@<TRIPOS>BOND
     1    34    35    1
     2    35    36   ar
     3    36    37   ar
     4    37    38   ar
     5    38    39   ar
     6    39    40   ar
     7    40    41   ar
     8    41    42   ar
     9    42    43   ar
    10    43    26    1
    11    26    27    1
    12    27    28    1
    13    28    29    1
    14    29    30    1
    15    30    31    1
    16    31    32    1
    17    31    33    1
    18    33    25    1
    19    25    24    1
    20    24     1    1
    21     1     9    1
    22     9    10   ar
    23    10    11   ar
    24    11    12   ar
    25    12    13   ar
    26    13    14   ar
    27     1     2    1
    28     2     3    1
    29     3     4    1
    30     4     5   am
    31     5     6    2
    32     5    15    1
    33    15    16   ar
    34    16    17   ar
    35    17    18   ar
    36    18    19   ar
    37    19    21    1
    38    21    22   ar
    39    21    23   ar
    40    19    20   ar
    41     4     7    1
    42     7     8    1
    43    43    35   ar
    44    32    26    1
    45     8     1    1
    46    42    37   ar
    47    33    28    1
    48    14     9   ar
    49    20    15   ar
@<TRIPOS>MOLECULE
*****
 43 49 0 0 0
SMALL
GASTEIGER

@<TRIPOS>ATOM
      1 C         140.7588  141.8926  161.7794 C.3     1  UNL1        0.0235
      2 C         141.1266  142.3958  163.1438 C.3     1  UNL1        0.0257
      3 C         141.0757  141.4706  164.3234 C.3     1  UNL1        0.0940
      4 N         140.6571  140.0421  164.1386 N.am    1  UNL1       -0.2761
      5 C         140.6062  139.1168  165.3181 C.2     1  UNL1        0.2490
      6 O         140.1875  137.6884  165.1334 O.2     1  UNL1       -0.2699
      7 C         140.2892  139.5389  162.7742 C.3     1  UNL1        0.0940
      8 C         140.3401  140.4640  161.5947 C.3     1  UNL1        0.0257
      9 C         140.5058  141.8844  160.3009 C.ar    1  UNL1       -0.0226
     10 C         141.4764  141.2095  159.3777 C.ar    1  UNL1       -0.0043
     11 C         141.2235  141.2014  157.8991 C.ar    1  UNL1       -0.0003
     12 C         139.9999  141.8681  157.3439 C.ar    1  UNL1       -0.0000
     13 C         139.0292  142.5430  158.2672 C.ar    1  UNL1       -0.0003
     14 C         139.2823  142.5511  159.7457 C.ar    1  UNL1       -0.0043
     15 C         140.9740  139.6201  166.6825 C.ar    1  UNL1        0.0536
     16 C         142.4173  139.7544  167.0685 C.ar    1  UNL1        0.0045
     17 C         142.7850  140.2577  168.4328 C.ar    1  UNL1        0.0002
     18 C         141.7095  140.6268  169.4112 C.ar    1  UNL1        0.0011
     19 C         140.2663  140.4925  169.0251 C.ar    1  UNL1        0.0141
     20 C         139.8985  139.9892  167.6608 C.ar    1  UNL1        0.0056
     21 C         139.1909  140.8616  170.0035 C.2     1  UNL1        0.0729
     22 O         139.2134  142.2044  170.6716 O.co2   1  UNL1       -0.5446
     23 O         138.0928  139.8879  170.3137 O.co2   1  UNL1       -0.5446
     24 C         141.0896  143.3182  161.4508 C.3     1  UNL1        0.0215
     25 C         142.5009  143.8098  161.5806 C.3     1  UNL1        0.0723
     26 C         142.5829  143.7882  161.7126 C.3     1  UNL1        0.0893
     27 C         143.2027  142.5997  161.0392 C.3     1  UNL1        0.0386
     28 C         144.2213  141.7725  161.7659 C.3     1  UNL1        0.0594
     29 C         145.1506  141.2621  162.8270 C.3     1  UNL1        0.0174
     30 C         145.0230  142.1568  164.0242 C.3     1  UNL1        0.0174
     31 C         144.0149  143.2201  163.7031 C.3     1  UNL1        0.0594
     32 C         142.9818  144.1493  163.1128 C.3     1  UNL1        0.0386
     33 N         143.5194  142.9826  162.3073 N.3     1  UNL1       -0.2751
     34 C         140.3478  145.1268  163.0940 C.3     1  UNL1        0.0718
     35 C         140.4005  145.3280  161.6085 C.ar    1  UNL1        0.1207
     36 N         139.6477  146.0283  160.5163 N.ar    1  UNL1       -0.2309
     37 C         140.3463  145.7486  159.2187 C.ar    1  UNL1        0.0983
     38 C         140.0569  146.1762  157.8105 C.ar    1  UNL1        0.0206
     39 C         140.9520  145.7306  156.6924 C.ar    1  UNL1        0.0016
     40 C         142.1366  144.8574  156.9826 C.ar    1  UNL1        0.0016
     41 C         142.4261  144.4298  158.3909 C.ar    1  UNL1        0.0188
     42 C         141.5309  144.8754  159.5090 C.ar    1  UNL1        0.0785
     43 N         141.5644  144.6155  160.9859 N.ar    1  UNL1       -0.3167
@<TRIPOS>UNITY_ATOM_ATTR
22 1
charge -1
@<TRIPOS>BOND
     1    34    35    1
     2    35    36   ar
     3    36    37   ar
     4    37    38   ar
     5    38    39   ar
     6    39    40   ar
     7    40    41   ar
     8    41    42   ar
     9    42    43   ar
    10    43    26    1
    11    26    27    1
    12    27    28    1
    13    28    29    1
    14    29    30    1
    15    30    31    1
    16    31    32    1
    17    31    33    1
    18    33    25    1
    19    25    24    1
    20    24     1    1
    21     1     9    1
    22     9    10   ar
    23    10    11   ar
    24    11    12   ar
    25    12    13   ar
    26    13    14   ar
    27     1     2    1
    28     2     3    1
    29     3     4    1
    30     4     5   am
    31     5     6    2
    32     5    15    1
    33    15    16   ar
    34    16    17   ar
    35    17    18   ar
    36    18    19   ar
    37    19    21    1
    38    21    22   ar
    39    21    23   ar
    40    19    20   ar
    41     4     7    1
    42     7     8    1
    43    43    35   ar
    44    32    26    1
    45     8     1    1
    46    42    37   ar
    47    33    28    1
    48    14     9   ar
    49    20    15   ar
@<TRIPOS>MOLECULE
*****
 43 49 0 0 0
SMALL
GASTEIGER

@<TRIPOS>ATOM
      1 C         140.2617  141.6441  161.5009 C.3     1  UNL1        0.0235
      2 C         140.9521  141.9555  162.7956 C.3     1  UNL1        0.0257
      3 C         140.6943  141.1077  164.0060 C.3     1  UNL1        0.0940
      4 N         139.7461  139.9486  163.9216 N.am    1  UNL1       -0.2761
      5 C         139.4883  139.1008  165.1319 C.2     1  UNL1        0.2490
      6 O         138.5400  137.9416  165.0475 O.2     1  UNL1       -0.2699
      7 C         139.0556  139.6371  162.6269 C.3     1  UNL1        0.0940
      8 C         139.3134  140.4848  161.4166 C.3     1  UNL1        0.0257
      9 C         139.8510  141.7477  160.0619 C.ar    1  UNL1       -0.0226
     10 C         138.4989  142.2903  159.7051 C.ar    1  UNL1       -0.0043
     11 C         138.0882  142.3939  158.2661 C.ar    1  UNL1       -0.0003
     12 C         139.0297  141.9548  157.1840 C.ar    1  UNL1       -0.0000
     13 C         140.3818  141.4121  157.5409 C.ar    1  UNL1       -0.0003
     14 C         140.7924  141.3085  158.9799 C.ar    1  UNL1       -0.0043
     15 C         140.1788  139.4123  166.4266 C.ar    1  UNL1        0.0536
     16 C         141.6671  139.2625  166.5379 C.ar    1  UNL1        0.0045
     17 C         142.3575  139.5740  167.8326 C.ar    1  UNL1        0.0002
     18 C         141.5596  140.0353  169.0160 C.ar    1  UNL1        0.0011
     19 C         140.0712  140.1851  168.9048 C.ar    1  UNL1        0.0141
     20 C         139.3808  139.8736  167.6100 C.ar    1  UNL1        0.0056
     21 C         139.2734  140.6464  170.0882 C.2     1  UNL1        0.0729
     22 O         138.1889  139.7741  170.6477 O.co2   1  UNL1       -0.5446
     23 O         139.5599  141.9801  170.7121 O.co2   1  UNL1       -0.5446
     24 C         141.0673  142.8391  161.0856 C.3     1  UNL1        0.0215
     25 C         140.7596  144.1888  161.6635 C.3     1  UNL1        0.0723
     26 C         140.7485  144.2129  161.8182 C.3     1  UNL1        0.0893
     27 C         139.2651  144.0611  161.6549 C.3     1  UNL1        0.0386
     28 C         138.3633  144.1783  162.8478 C.3     1  UNL1        0.0594
     29 C         137.8740  144.3649  164.2534 C.3     1  UNL1        0.0174
     30 C         139.0662  144.6079  165.1308 C.3     1  UNL1        0.0174
     31 C         140.2923  144.5715  164.2674 C.3     1  UNL1        0.0594
     32 C         141.3299  144.4820  163.1744 C.3     1  UNL1        0.0386
     33 N         139.8579  144.3060  162.8564 N.3     1  UNL1       -0.2751
     34 C         143.4233  142.9805  161.9662 C.3     1  UNL1        0.0718
     35 C         143.0205  143.4856  160.6125 C.ar    1  UNL1        0.1207
     36 N         143.5572  143.5808  159.2150 N.ar    1  UNL1       -0.2309
     37 C         142.5186  144.2498  158.3642 C.ar    1  UNL1        0.0983
     38 C         142.4938  144.6102  156.9084 C.ar    1  UNL1        0.0206
     39 C         141.2905  145.2889  156.3242 C.ar    1  UNL1        0.0016
     40 C         140.1119  145.6071  157.1958 C.ar    1  UNL1        0.0016
     41 C         140.1367  145.2466  158.6516 C.ar    1  UNL1        0.0188
     42 C         141.3401  144.5680  159.2358 C.ar    1  UNL1        0.0785
     43 N         141.6503  144.0957  160.6253 N.ar    1  UNL1       -0.3167
@<TRIPOS>UNITY_ATOM_ATTR
22 1
charge -1
@<TRIPOS>BOND
     1    34    35    1
     2    35    36   ar
     3    36    37   ar
     4    37    38   ar
     5    38    39   ar
     6    39    40   ar
     7    40    41   ar
     8    41    42   ar
     9    42    43   ar
    10    43    26    1
    11    26    27    1
    12    27    28    1
    13    28    29    1
    14    29    30    1
    15    30    31    1
    16    31    32    1
    17    31    33    1
    18    33    25    1
    19    25    24    1
    20    24     1    1
    21     1     9    1
    22     9    10   ar
    23    10    11   ar
    24    11    12   ar
    25    12    13   ar
    26    13    14   ar
    27     1     2    1
    28     2     3    1
    29     3     4    1
    30     4     5   am
    31     5     6    2
    32     5    15    1
    33    15    16   ar
    34    16    17   ar
    35    17    18   ar
    36    18    19   ar
    37    19    21    1
    38    21    22   ar
    39    21    23   ar
    40    19    20   ar
    41     4     7    1
    42     7     8    1
    43    43    35   ar
    44    32    26    1
    45     8     1    1
    46    42    37   ar
    47    33    28    1
    48    14     9   ar
    49    20    15   ar
@<TRIPOS>MOLECULE
*****
 43 49 0 0 0
SMALL
GASTEIGER

@<TRIPOS>ATOM
      1 C         140.8504  141.1476  161.0677 C.3     1  UNL1        0.0235
      2 C         140.2126  139.9918  160.3554 C.3     1  UNL1        0.0257
      3 C         140.9446  139.2990  159.2444 C.3     1  UNL1        0.0940
      4 N         142.3144  139.7621  158.8457 N.am    1  UNL1       -0.2761
      5 C         143.0465  139.0693  157.7347 C.2     1  UNL1        0.2490
      6 O         144.4163  139.5323  157.3359 O.2     1  UNL1       -0.2699
      7 C         142.9523  140.9178  159.5579 C.3     1  UNL1        0.0940
      8 C         142.2204  141.6106  160.6689 C.3     1  UNL1        0.0257
      9 C         141.0349  142.2791  162.0351 C.ar    1  UNL1       -0.0226
     10 C         140.9840  143.6972  161.5490 C.ar    1  UNL1       -0.0043
     11 C         141.1684  144.8287  162.5164 C.ar    1  UNL1       -0.0003
     12 C         141.4038  144.5419  163.9699 C.ar    1  UNL1       -0.0000
     13 C         141.4546  143.1237  164.4559 C.ar    1  UNL1       -0.0003
     14 C         141.2702  141.9923  163.4884 C.ar    1  UNL1       -0.0043
     15 C         142.4085  137.9135  157.0225 C.ar    1  UNL1        0.0536
     16 C         143.0157  136.5453  157.1191 C.ar    1  UNL1        0.0045
     17 C         142.3777  135.3896  156.4069 C.ar    1  UNL1        0.0002
     18 C         141.1324  135.6021  155.5981 C.ar    1  UNL1        0.0011
     19 C         140.5252  136.9703  155.5015 C.ar    1  UNL1        0.0141
     20 C         141.1632  138.1260  156.2137 C.ar    1  UNL1        0.0056
     21 C         139.2800  137.1827  154.6927 C.2     1  UNL1        0.0729
     22 O         137.9426  137.2220  155.3710 O.co2   1  UNL1       -0.5446
     23 O         139.3720  137.3558  153.2055 O.co2   1  UNL1       -0.5446
     24 C         139.5447  141.0775  161.8024 C.3     1  UNL1        0.0215
     25 C         138.2685  141.4345  161.0995 C.3     1  UNL1        0.0723
     26 C         138.2357  141.3726  160.9590 C.3     1  UNL1        0.0893
     27 C         138.7176  142.6637  160.3664 C.3     1  UNL1        0.0386
     28 C         138.7089  142.8555  158.8788 C.3     1  UNL1        0.0594
     29 C         138.5273  142.6116  157.4099 C.3     1  UNL1        0.0174
     30 C         137.9659  141.2316  157.2353 C.3     1  UNL1        0.0174
     31 C         137.8006  140.6227  158.5961 C.3     1  UNL1        0.0594
     32 C         137.7452  140.2736  160.0639 C.3     1  UNL1        0.0386
     33 N         138.2598  141.6263  159.6119 N.3     1  UNL1       -0.2751
     34 C         137.7109  143.5769  162.8462 C.3     1  UNL1        0.0718
     35 C         137.9887  142.2433  163.4742 C.ar    1  UNL1        0.1207
     36 N         138.0965  141.6119  164.8305 N.ar    1  UNL1       -0.2309
     37 C         138.4187  140.1592  164.6413 C.ar    1  UNL1        0.0983
     38 C         138.6407  139.0446  165.6203 C.ar    1  UNL1        0.0206
     39 C         138.9540  137.6636  165.1259 C.ar    1  UNL1        0.0016
     40 C         139.0454  137.3971  163.6526 C.ar    1  UNL1        0.0016
     41 C         138.8234  138.5117  162.6736 C.ar    1  UNL1        0.0188
     42 C         138.5100  139.8928  163.1680 C.ar    1  UNL1        0.0785
     43 N         138.2443  141.1808  162.4467 N.ar    1  UNL1       -0.3167
@<TRIPOS>UNITY_ATOM_ATTR
22 1
charge -1
@<TRIPOS>BOND
     1    34    35    1
     2    35    36   ar
     3    36    37   ar
     4    37    38   ar
     5    38    39   ar
     6    39    40   ar
     7    40    41   ar
     8    41    42   ar
     9    42    43   ar
    10    43    26    1
    11    26    27    1
    12    27    28    1
    13    28    29    1
    14    29    30    1
    15    30    31    1
    16    31    32    1
    17    31    33    1
    18    33    25    1
    19    25    24    1
    20    24     1    1
    21     1     9    1
    22     9    10   ar
    23    10    11   ar
    24    11    12   ar
    25    12    13   ar
    26    13    14   ar
    27     1     2    1
    28     2     3    1
    29     3     4    1
    30     4     5   am
    31     5     6    2
    32     5    15    1
    33    15    16   ar
    34    16    17   ar
    35    17    18   ar
    36    18    19   ar
    37    19    21    1
    38    21    22   ar
    39    21    23   ar
    40    19    20   ar
    41     4     7    1
    42     7     8    1
    43    43    35   ar
    44    32    26    1
    45     8     1    1
    46    42    37   ar
    47    33    28    1
    48    14     9   ar
    49    20    15   ar
@<TRIPOS>MOLECULE
*****
 43 49 0 0 0
SMALL
GASTEIGER

@<TRIPOS>ATOM
      1 C         140.1418  141.2649  163.1499 C.3     1  UNL1        0.0235
      2 C         140.6715  141.7863  164.4528 C.3     1  UNL1        0.0257
      3 C         140.2630  141.1375  165.7420 C.3     1  UNL1        0.0940
      4 N         139.3248  139.9672  165.7284 N.am    1  UNL1       -0.2761
      5 C         138.9163  139.3184  167.0177 C.2     1  UNL1        0.2490
      6 O         137.9781  138.1481  167.0040 O.2     1  UNL1       -0.2699
      7 C         138.7952  139.4457  164.4255 C.3     1  UNL1        0.0940
      8 C         139.2036  140.0945  163.1363 C.3     1  UNL1        0.0257
      9 C         139.9100  141.1340  161.6736 C.ar    1  UNL1       -0.0226
     10 C         141.0324  140.7115  160.7727 C.ar    1  UNL1       -0.0043
     11 C         140.8005  140.5806  159.2965 C.ar    1  UNL1       -0.0003
     12 C         139.4462  140.8722  158.7213 C.ar    1  UNL1       -0.0000
     13 C         138.3238  141.2948  159.6223 C.ar    1  UNL1       -0.0003
     14 C         138.5558  141.4256  161.0985 C.ar    1  UNL1       -0.0043
     15 C         139.4460  139.8399  168.3205 C.ar    1  UNL1        0.0536
     16 C         138.4957  140.2527  169.4052 C.ar    1  UNL1        0.0045
     17 C         139.0255  140.7743  170.7080 C.ar    1  UNL1        0.0002
     18 C         140.5056  140.8830  170.9261 C.ar    1  UNL1        0.0011
     19 C         141.4559  140.4702  169.8414 C.ar    1  UNL1        0.0141
     20 C         140.9261  139.9487  168.5386 C.ar    1  UNL1        0.0056
     21 C         142.9359  140.5789  170.0596 C.2     1  UNL1        0.0729
     22 O         143.6763  139.4697  170.7462 O.co2   1  UNL1       -0.5446
     23 O         143.6756  141.7969  169.5912 O.co2   1  UNL1       -0.5446
     24 C         140.9995  142.3897  162.6508 C.3     1  UNL1        0.0215
     25 C         140.5878  143.8115  162.8938 C.3     1  UNL1        0.0723
     26 C         140.5298  143.8592  163.0317 C.3     1  UNL1        0.0893
     27 C         139.1674  143.6815  162.4296 C.3     1  UNL1        0.0386
     28 C         137.9431  143.9792  163.2435 C.3     1  UNL1        0.0594
     29 C         137.0464  144.3789  164.3775 C.3     1  UNL1        0.0174
     30 C         137.9126  144.7561  165.5426 C.3     1  UNL1        0.0174
     31 C         139.3447  144.5894  165.1287 C.3     1  UNL1        0.0594
     32 C         140.6677  144.3346  164.4476 C.3     1  UNL1        0.0386
     33 N         139.3636  144.1093  163.7077 N.3     1  UNL1       -0.2751
     34 C         140.6935  144.4325  160.1438 C.3     1  UNL1        0.0718
     35 C         141.9214  143.8201  160.7498 C.ar    1  UNL1        0.1207
     36 N         143.2968  143.3712  160.3538 N.ar    1  UNL1       -0.2309
     37 C         143.9796  142.8351  161.5771 C.ar    1  UNL1        0.0983
     38 C         145.3463  142.2551  161.7908 C.ar    1  UNL1        0.0206
     39 C         145.7595  141.7927  163.1566 C.ar    1  UNL1        0.0016
     40 C         144.8061  141.9102  164.3086 C.ar    1  UNL1        0.0016
     41 C         143.4394  142.4902  164.0949 C.ar    1  UNL1        0.0188
     42 C         143.0262  142.9527  162.7291 C.ar    1  UNL1        0.0785
     43 N         141.7541  143.5614  162.2178 N.ar    1  UNL1       -0.3167
@<TRIPOS>UNITY_ATOM_ATTR
22 1
charge -1
@<TRIPOS>BOND
     1    34    35    1
     2    35    36   ar
     3    36    37   ar
     4    37    38   ar
     5    38    39   ar
     6    39    40   ar
     7    40    41   ar
     8    41    42   ar
     9    42    43   ar
    10    43    26    1
    11    26    27    1
    12    27    28    1
    13    28    29    1
    14    29    30    1
    15    30    31    1
    16    31    32    1
    17    31    33    1
    18    33    25    1
    19    25    24    1
    20    24     1    1
    21     1     9    1
    22     9    10   ar
    23    10    11   ar
    24    11    12   ar
    25    12    13   ar
    26    13    14   ar
    27     1     2    1
    28     2     3    1
    29     3     4    1
    30     4     5   am
    31     5     6    2
    32     5    15    1
    33    15    16   ar
    34    16    17   ar
    35    17    18   ar
    36    18    19   ar
    37    19    21    1
    38    21    22   ar
    39    21    23   ar
    40    19    20   ar
    41     4     7    1
    42     7     8    1
    43    43    35   ar
    44    32    26    1
    45     8     1    1
    46    42    37   ar
    47    33    28    1
    48    14     9   ar
    49    20    15   ar
@<TRIPOS>MOLECULE
*****
 43 49 0 0 0
SMALL
GASTEIGER

@<TRIPOS>ATOM
      1 C         140.1417  141.2712  163.2515 C.3     1  UNL1        0.0235
      2 C         140.8207  141.8919  164.4363 C.3     1  UNL1        0.0257
      3 C         140.5720  141.3495  165.8126 C.3     1  UNL1        0.0940
      4 N         139.6443  140.1864  166.0040 N.am    1  UNL1       -0.2761
      5 C         139.3956  139.6440  167.3802 C.2     1  UNL1        0.2490
      6 O         138.4680  138.4809  167.5716 O.2     1  UNL1       -0.2699
      7 C         138.9654  139.5657  164.8192 C.3     1  UNL1        0.0940
      8 C         139.2140  140.1081  163.4430 C.3     1  UNL1        0.0257
      9 C         139.7359  141.0247  161.8286 C.ar    1  UNL1       -0.0226
     10 C         140.7491  140.5444  160.8323 C.ar    1  UNL1       -0.0043
     11 C         140.3433  140.2978  159.4093 C.ar    1  UNL1       -0.0003
     12 C         138.9243  140.5316  158.9829 C.ar    1  UNL1       -0.0000
     13 C         137.9111  141.0119  159.9793 C.ar    1  UNL1       -0.0003
     14 C         138.3170  141.2585  161.4022 C.ar    1  UNL1       -0.0043
     15 C         140.0746  140.2648  168.5650 C.ar    1  UNL1        0.0536
     16 C         141.2008  139.5452  169.2462 C.ar    1  UNL1        0.0045
     17 C         141.8797  140.1661  170.4309 C.ar    1  UNL1        0.0002
     18 C         141.4325  141.5064  170.9344 C.ar    1  UNL1        0.0011
     19 C         140.3064  142.2260  170.2532 C.ar    1  UNL1        0.0141
     20 C         139.6275  141.6051  169.0685 C.ar    1  UNL1        0.0056
     21 C         139.8593  143.5662  170.7567 C.2     1  UNL1        0.0729
     22 O         138.6658  143.6682  171.6597 O.co2   1  UNL1       -0.5446
     23 O         140.6055  144.8046  170.3573 O.co2   1  UNL1       -0.5446
     24 C         140.9284  142.3486  162.5660 C.3     1  UNL1        0.0215
     25 C         140.5577  143.7888  162.7628 C.3     1  UNL1        0.0723
     26 C         140.5118  143.8451  162.9020 C.3     1  UNL1        0.0893
     27 C         139.1025  143.6553  162.4247 C.3     1  UNL1        0.0386
     28 C         137.9530  144.0186  163.3172 C.3     1  UNL1        0.0594
     29 C         137.1575  144.4968  164.4956 C.3     1  UNL1        0.0174
     30 C         138.1212  144.9258  165.5621 C.3     1  UNL1        0.0174
     31 C         139.5122  144.7128  165.0428 C.3     1  UNL1        0.0594
     32 C         140.7716  144.3983  164.2718 C.3     1  UNL1        0.0386
     33 N         139.4083  144.1521  163.6553 N.3     1  UNL1       -0.2751
     34 C         140.3990  144.1398  159.9701 C.3     1  UNL1        0.0718
     35 C         141.6882  143.5997  160.5143 C.ar    1  UNL1        0.1207
     36 N         143.0293  143.1275  160.0362 N.ar    1  UNL1       -0.2309
     37 C         143.8312  142.7177  161.2358 C.ar    1  UNL1        0.0983
     38 C         145.2220  142.1735  161.3752 C.ar    1  UNL1        0.0206
     39 C         145.7673  141.8482  162.7341 C.ar    1  UNL1        0.0016
     40 C         144.9219  142.0672  163.9536 C.ar    1  UNL1        0.0016
     41 C         143.5311  142.6114  163.8143 C.ar    1  UNL1        0.0188
     42 C         142.9857  142.9367  162.4553 C.ar    1  UNL1        0.0785
     43 N         141.6613  143.4818  162.0094 N.ar    1  UNL1       -0.3167
@<TRIPOS>UNITY_ATOM_ATTR
22 1
charge -1
@<TRIPOS>BOND
     1    34    35    1
     2    35    36   ar
     3    36    37   ar
     4    37    38   ar
     5    38    39   ar
     6    39    40   ar
     7    40    41   ar
     8    41    42   ar
     9    42    43   ar
    10    43    26    1
    11    26    27    1
    12    27    28    1
    13    28    29    1
    14    29    30    1
    15    30    31    1
    16    31    32    1
    17    31    33    1
    18    33    25    1
    19    25    24    1
    20    24     1    1
    21     1     9    1
    22     9    10   ar
    23    10    11   ar
    24    11    12   ar
    25    12    13   ar
    26    13    14   ar
    27     1     2    1
    28     2     3    1
    29     3     4    1
    30     4     5   am
    31     5     6    2
    32     5    15    1
    33    15    16   ar
    34    16    17   ar
    35    17    18   ar
    36    18    19   ar
    37    19    21    1
    38    21    22   ar
    39    21    23   ar
    40    19    20   ar
    41     4     7    1
    42     7     8    1
    43    43    35   ar
    44    32    26    1
    45     8     1    1
    46    42    37   ar
    47    33    28    1
    48    14     9   ar
    49    20    15   ar
@<TRIPOS>MOLECULE
*****
 43 49 0 0 0
SMALL
GASTEIGER

@<TRIPOS>ATOM
      1 C         140.4088  140.9429  162.5953 C.3     1  UNL1        0.0235
      2 C         141.1814  141.6032  163.6985 C.3     1  UNL1        0.0257
      3 C         140.9566  141.1901  165.1229 C.3     1  UNL1        0.0940
      4 N         139.9591  140.1169  165.4441 N.am    1  UNL1       -0.2761
      5 C         139.7343  139.7039  166.8685 C.2     1  UNL1        0.2490
      6 O         138.7368  138.6307  167.1897 O.2     1  UNL1       -0.2699
      7 C         139.1864  139.4567  164.3409 C.3     1  UNL1        0.0940
      8 C         139.4112  139.8697  162.9165 C.3     1  UNL1        0.0257
      9 C         139.9240  140.6160  161.2139 C.ar    1  UNL1       -0.0226
     10 C         139.0103  141.5642  160.4957 C.ar    1  UNL1       -0.0043
     11 C         138.5255  141.2373  159.1143 C.ar    1  UNL1       -0.0003
     12 C         138.9545  139.9620  158.4512 C.ar    1  UNL1       -0.0000
     13 C         139.8683  139.0137  159.1695 C.ar    1  UNL1       -0.0003
     14 C         140.3530  139.3408  160.5509 C.ar    1  UNL1       -0.0043
     15 C         140.5070  140.3641  167.9716 C.ar    1  UNL1        0.0536
     16 C         141.8566  139.8379  168.3611 C.ar    1  UNL1        0.0045
     17 C         142.6292  140.4983  169.4643 C.ar    1  UNL1        0.0002
     18 C         142.0523  141.6848  170.1780 C.ar    1  UNL1        0.0011
     19 C         140.7027  142.2110  169.7885 C.ar    1  UNL1        0.0141
     20 C         139.9300  141.5507  168.6853 C.ar    1  UNL1        0.0056
     21 C         140.1258  143.3975  170.5021 C.2     1  UNL1        0.0729
     22 O         138.9374  143.2269  171.4015 O.co2   1  UNL1       -0.5446
     23 O         140.7372  144.7546  170.3166 O.co2   1  UNL1       -0.5446
     24 C         141.2379  141.9026  161.7944 C.3     1  UNL1        0.0215
     25 C         142.7145  141.6802  161.6518 C.3     1  UNL1        0.0723
     26 C         142.8041  141.6594  161.7790 C.3     1  UNL1        0.0893
     27 C         142.7290  140.1886  161.4936 C.3     1  UNL1        0.0386
     28 C         143.4308  139.2136  162.3918 C.3     1  UNL1        0.0594
     29 C         144.2503  138.6370  163.5080 C.3     1  UNL1        0.0174
     30 C         144.7422  139.7722  164.3561 C.3     1  UNL1        0.0174
     31 C         144.2268  141.0504  163.7640 C.3     1  UNL1        0.0594
     32 C         143.5810  142.1549  162.9625 C.3     1  UNL1        0.0386
     33 N         143.4163  140.7052  162.5499 N.3     1  UNL1       -0.2751
     34 C         142.7552  141.3631  158.8455 C.3     1  UNL1        0.0718
     35 C         142.0284  142.5594  159.3846 C.ar    1  UNL1        0.1207
     36 N         141.2316  143.7343  158.9003 N.ar    1  UNL1       -0.2309
     37 C         140.8131  144.5357  160.0973 C.ar    1  UNL1        0.0983
     38 C         140.0115  145.7964  160.2308 C.ar    1  UNL1        0.0206
     39 C         139.7480  146.3774  161.5883 C.ar    1  UNL1        0.0016
     40 C         140.2862  145.6977  162.8124 C.ar    1  UNL1        0.0016
     41 C         141.0878  144.4369  162.6789 C.ar    1  UNL1        0.0188
     42 C         141.3512  143.8559  161.3214 C.ar    1  UNL1        0.0785
     43 N         142.1023  142.6345  160.8809 N.ar    1  UNL1       -0.3167
@<TRIPOS>UNITY_ATOM_ATTR
22 1
charge -1
@<TRIPOS>BOND
     1    34    35    1
     2    35    36   ar
     3    36    37   ar
     4    37    38   ar
     5    38    39   ar
     6    39    40   ar
     7    40    41   ar
     8    41    42   ar
     9    42    43   ar
    10    43    26    1
    11    26    27    1
    12    27    28    1
    13    28    29    1
    14    29    30    1
    15    30    31    1
    16    31    32    1
    17    31    33    1
    18    33    25    1
    19    25    24    1
    20    24     1    1
    21     1     9    1
    22     9    10   ar
    23    10    11   ar
    24    11    12   ar
    25    12    13   ar
    26    13    14   ar
    27     1     2    1
    28     2     3    1
    29     3     4    1
    30     4     5   am
    31     5     6    2
    32     5    15    1
    33    15    16   ar
    34    16    17   ar
    35    17    18   ar
    36    18    19   ar
    37    19    21    1
    38    21    22   ar
    39    21    23   ar
    40    19    20   ar
    41     4     7    1
    42     7     8    1
    43    43    35   ar
    44    32    26    1
    45     8     1    1
    46    42    37   ar
    47    33    28    1
    48    14     9   ar
    49    20    15   ar
@<TRIPOS>MOLECULE
*****
 43 49 0 0 0
SMALL
GASTEIGER

@<TRIPOS>ATOM
      1 C         140.2364  141.6820  161.4915 C.3     1  UNL1        0.0235
      2 C         140.9097  141.9975  162.7943 C.3     1  UNL1        0.0257
      3 C         140.6599  141.1350  163.9958 C.3     1  UNL1        0.0940
      4 N         139.7368  139.9570  163.8947 N.am    1  UNL1       -0.2761
      5 C         139.4870  139.0945  165.0962 C.2     1  UNL1        0.2490
      6 O         138.5639  137.9165  164.9951 O.2     1  UNL1       -0.2699
      7 C         139.0635  139.6415  162.5919 C.3     1  UNL1        0.0940
      8 C         139.3132  140.5039  161.3904 C.3     1  UNL1        0.0257
      9 C         139.8352  141.7884  160.0500 C.ar    1  UNL1       -0.0226
     10 C         138.4877  142.3370  159.6851 C.ar    1  UNL1       -0.0043
     11 C         138.0865  142.4435  158.2436 C.ar    1  UNL1       -0.0003
     12 C         139.0330  142.0012  157.1672 C.ar    1  UNL1       -0.0000
     13 C         140.3805  141.4525  157.5322 C.ar    1  UNL1       -0.0003
     14 C         140.7815  141.3462  158.9737 C.ar    1  UNL1       -0.0043
     15 C         140.1604  139.4100  166.3989 C.ar    1  UNL1        0.0536
     16 C         141.6479  139.2668  166.5284 C.ar    1  UNL1        0.0045
     17 C         142.3211  139.5824  167.8311 C.ar    1  UNL1        0.0002
     18 C         141.5069  140.0412  169.0044 C.ar    1  UNL1        0.0011
     19 C         140.0194  140.1844  168.8749 C.ar    1  UNL1        0.0141
     20 C         139.3461  139.8688  167.5722 C.ar    1  UNL1        0.0056
     21 C         139.2052  140.6432  170.0482 C.2     1  UNL1        0.0729
     22 O         138.1617  139.7401  170.6361 O.co2   1  UNL1       -0.5446
     23 O         139.4345  142.0050  170.6336 O.co2   1  UNL1       -0.5446
     24 C         141.0201  142.8969  161.0921 C.3     1  UNL1        0.0215
     25 C         140.6393  144.2450  161.6286 C.3     1  UNL1        0.0723
     26 C         140.6298  144.2708  161.7831 C.3     1  UNL1        0.0893
     27 C         139.1497  144.0696  161.6448 C.3     1  UNL1        0.0386
     28 C         138.2627  144.1741  162.8499 C.3     1  UNL1        0.0594
     29 C         137.7890  144.3639  164.2605 C.3     1  UNL1        0.0174
     30 C         138.9858  144.6565  165.1160 C.3     1  UNL1        0.0174
     31 C         140.1993  144.6476  164.2342 C.3     1  UNL1        0.0594
     32 C         141.2227  144.5765  163.1265 C.3     1  UNL1        0.0386
     33 N         139.7524  144.3494  162.8336 N.3     1  UNL1       -0.2751
     34 C         139.9611  145.5389  159.2062 C.3     1  UNL1        0.0718
     35 C         141.2535  144.7780  159.2339 C.ar    1  UNL1        0.1207
     36 N         142.3968  144.4215  158.3306 N.ar    1  UNL1       -0.2309
     37 C         143.3665  143.5896  159.1164 C.ar    1  UNL1        0.0983
     38 C         144.6745  142.9553  158.7467 C.ar    1  UNL1        0.0206
     39 C         145.4386  142.1633  159.7659 C.ar    1  UNL1        0.0016
     40 C         144.8947  142.0056  161.1549 C.ar    1  UNL1        0.0016
     41 C         143.5867  142.6399  161.5246 C.ar    1  UNL1        0.0188
     42 C         142.8226  143.4319  160.5054 C.ar    1  UNL1        0.0785
     43 N         141.5167  144.1664  160.5780 N.ar    1  UNL1       -0.3167
@<TRIPOS>UNITY_ATOM_ATTR
22 1
charge -1
@<TRIPOS>BOND
     1    34    35    1
     2    35    36   ar
     3    36    37   ar
     4    37    38   ar
     5    38    39   ar
     6    39    40   ar
     7    40    41   ar
     8    41    42   ar
     9    42    43   ar
    10    43    26    1
    11    26    27    1
    12    27    28    1
    13    28    29    1
    14    29    30    1
    15    30    31    1
    16    31    32    1
    17    31    33    1
    18    33    25    1
    19    25    24    1
    20    24     1    1
    21     1     9    1
    22     9    10   ar
    23    10    11   ar
    24    11    12   ar
    25    12    13   ar
    26    13    14   ar
    27     1     2    1
    28     2     3    1
    29     3     4    1
    30     4     5   am
    31     5     6    2
    32     5    15    1
    33    15    16   ar
    34    16    17   ar
    35    17    18   ar
    36    18    19   ar
    37    19    21    1
    38    21    22   ar
    39    21    23   ar
    40    19    20   ar
    41     4     7    1
    42     7     8    1
    43    43    35   ar
    44    32    26    1
    45     8     1    1
    46    42    37   ar
    47    33    28    1
    48    14     9   ar
    49    20    15   ar
