@<TRIPOS>MOLECULE
*****
 37 41 0 0 0
SMALL
GASTEIGER

@<TRIPOS>ATOM
      1 C         144.0493  140.5626  162.9193 C.2     1  UNL1        0.2352
      2 O         145.4335  141.0402  162.5940 O.2     1  UNL1       -0.2737
      3 N         142.9466  140.7184  161.9144 N.am    1  UNL1       -0.3008
      4 H         142.0381  140.4049  162.1279 H       1  UNL1        0.1497
      5 N         144.7331  138.9300  163.6846 N.3     1  UNL1       -0.3162
      6 C         143.7676  139.9293  164.2495 C.3     1  UNL1        0.1166
      7 C         142.8999  141.1485  164.3526 C.3     1  UNL1        0.0739
      8 C         142.0859  141.3874  165.5895 C.3     1  UNL1        0.2039
      9 N         142.1395  140.4070  166.7236 N.pl3   1  UNL1       -0.1931
     10 C         143.0071  139.1877  166.6206 C.3     1  UNL1        0.2039
     11 C         143.8212  138.9489  165.3835 C.3     1  UNL1        0.0739
     12 H         145.0262  139.2287  162.7544 H       1  UNL1        0.1192
     13 H         144.2807  138.0180  163.6219 H       1  UNL1        0.1192
     14 C         141.3254  140.6459  167.9606 C.2     1  UNL1        0.3205
     15 N         139.9842  139.9919  168.1137 N.2     1  UNL1        0.0097
     16 C         139.1701  140.2308  169.3507 C.2     1  UNL1        0.4717
     17 N         139.6972  141.1237  170.4347 N.2     1  UNL1        0.0158
     18 C         141.0384  141.7777  170.2815 C.2     1  UNL1        0.3714
     19 N         141.8127  142.7009  171.1749 N.2     1  UNL1       -0.0339
     20 C         143.1053  143.0326  170.4900 C.2     1  UNL1        0.2323
     21 C         143.1299  142.3144  169.1734 C.2     1  UNL1        0.0486
     22 C         141.8525  141.5388  169.0445 C.3     1  UNL1        0.2428
     23 C         143.2282  141.3518  160.5841 C.3     1  UNL1        0.0984
     24 C         143.2652  140.5080  159.3445 C.ar    1  UNL1       -0.0041
     25 C         142.6071  139.1601  159.3348 C.ar    1  UNL1       -0.0018
     26 C         142.6440  138.3163  158.0952 C.ar    1  UNL1        0.0111
     27 C         143.3390  138.8205  156.8653 C.ar    1  UNL1        0.0577
     28 CL        143.3759  137.9767  155.6256 Cl      1  UNL1       -0.0822
     29 C         143.9970  140.1684  156.8749 C.ar    1  UNL1        0.0111
     30 C         143.9601  141.0122  158.1145 C.ar    1  UNL1       -0.0018
     31 C         143.4729  142.8289  160.4935 C.3     1  UNL1        0.0504
     32 C         143.0331  143.7317  161.6078 C.ar    1  UNL1       -0.0202
     33 C         141.5916  144.1293  161.7263 C.ar    1  UNL1       -0.0042
     34 C         141.1518  145.0320  162.8406 C.ar    1  UNL1       -0.0003
     35 C         142.1534  145.5371  163.8364 C.ar    1  UNL1       -0.0000
     36 C         143.5949  145.1395  163.7179 C.ar    1  UNL1       -0.0003
     37 C         144.0347  144.2368  162.6036 C.ar    1  UNL1       -0.0042
@<TRIPOS>BOND
     1     5     6    1
     2     6     1    1
     3     1     2    2
     4     1     3   am
     5     3    23    1
     6    23    31    1
     7    31    32    1
     8    32    33   ar
     9    33    34   ar
    10    34    35   ar
    11    35    36   ar
    12    36    37   ar
    13    23    24    1
    14    24    25   ar
    15    25    26   ar
    16    26    27   ar
    17    27    28    1
    18    27    29   ar
    19    29    30   ar
    20     6     7    1
    21     7     8    1
    22     8     9    1
    23     9    14    1
    24    14    15    2
    25    15    16    1
    26    16    17    2
    27    17    18    1
    28    18    19    2
    29    19    20    1
    30    20    21    2
    31    21    22    1
    32     9    10    1
    33    10    11    1
    34    11     6    1
    35    37    32   ar
    36    30    24   ar
    37    22    14    1
    38    22    18    1
    39     5    12    1
    40     5    13    1
    41     3     4    1
@<TRIPOS>MOLECULE
*****
 37 41 0 0 0
SMALL
GASTEIGER

@<TRIPOS>ATOM
      1 C         142.0950  144.0704  162.3690 C.2     1  UNL1        0.2352
      2 O         143.2322  145.0477  162.3294 O.2     1  UNL1       -0.2737
      3 N         141.9132  143.0854  161.2524 N.am    1  UNL1       -0.3008
      4 H         141.1667  142.4440  161.2784 H       1  UNL1        0.1497
      5 N         140.8931  145.4514  162.9748 N.3     1  UNL1       -0.3162
      6 C         141.1394  144.0780  163.5252 C.3     1  UNL1        0.1166
      7 C         141.7175  142.7019  163.6741 C.3     1  UNL1        0.0739
      8 C         141.2546  141.8104  164.7879 C.3     1  UNL1        0.2039
      9 N         140.2134  142.2950  165.7531 N.pl3   1  UNL1       -0.1931
     10 C         139.6353  143.6710  165.6042 C.3     1  UNL1        0.2039
     11 C         140.0983  144.5626  164.4903 C.3     1  UNL1        0.0739
     12 H         141.4872  145.6026  162.1596 H       1  UNL1        0.1192
     13 H         141.1108  146.1475  163.6879 H       1  UNL1        0.1192
     14 C         139.7505  141.4034  166.8670 C.2     1  UNL1        0.3205
     15 N         139.0071  140.1384  166.5555 N.2     1  UNL1        0.0097
     16 C         138.5441  139.2469  167.6693 C.2     1  UNL1        0.4717
     17 N         138.8246  139.6203  169.0948 N.2     1  UNL1        0.0158
     18 C         139.5680  140.8853  169.4063 C.2     1  UNL1        0.3714
     19 N         139.9872  141.5094  170.7043 N.2     1  UNL1       -0.0339
     20 C         140.7092  142.7867  170.3926 C.2     1  UNL1        0.2323
     21 C         140.7363  142.9520  168.9020 C.2     1  UNL1        0.0486
     22 C         140.0310  141.7768  168.2924 C.3     1  UNL1        0.2428
     23 C         142.8687  143.0778  160.0961 C.3     1  UNL1        0.0984
     24 C         142.5104  143.7841  158.8223 C.ar    1  UNL1       -0.0041
     25 C         143.0317  143.2760  157.5107 C.ar    1  UNL1       -0.0018
     26 C         142.6733  143.9823  156.2369 C.ar    1  UNL1        0.0111
     27 C         141.7936  145.1967  156.2746 C.ar    1  UNL1        0.0577
     28 CL        141.4352  145.9030  155.0007 Cl      1  UNL1       -0.0822
     29 C         141.2723  145.7048  157.5861 C.ar    1  UNL1        0.0111
     30 C         141.6307  144.9985  158.8600 C.ar    1  UNL1       -0.0018
     31 C         144.1827  142.3637  160.2137 C.3     1  UNL1        0.0504
     32 C         144.5111  141.5981  161.4612 C.ar    1  UNL1       -0.0202
     33 C         145.3451  142.2339  162.5337 C.ar    1  UNL1       -0.0042
     34 C         145.6734  141.4682  163.7810 C.ar    1  UNL1       -0.0003
     35 C         145.1679  140.0669  163.9559 C.ar    1  UNL1       -0.0000
     36 C         144.3340  139.4311  162.8833 C.ar    1  UNL1       -0.0003
     37 C         144.0056  140.1967  161.6360 C.ar    1  UNL1       -0.0042
@<TRIPOS>BOND
     1     5     6    1
     2     6     1    1
     3     1     2    2
     4     1     3   am
     5     3    23    1
     6    23    31    1
     7    31    32    1
     8    32    33   ar
     9    33    34   ar
    10    34    35   ar
    11    35    36   ar
    12    36    37   ar
    13    23    24    1
    14    24    25   ar
    15    25    26   ar
    16    26    27   ar
    17    27    28    1
    18    27    29   ar
    19    29    30   ar
    20     6     7    1
    21     7     8    1
    22     8     9    1
    23     9    14    1
    24    14    15    2
    25    15    16    1
    26    16    17    2
    27    17    18    1
    28    18    19    2
    29    19    20    1
    30    20    21    2
    31    21    22    1
    32     9    10    1
    33    10    11    1
    34    11     6    1
    35    37    32   ar
    36    30    24   ar
    37    22    14    1
    38    22    18    1
    39     5    12    1
    40     5    13    1
    41     3     4    1
@<TRIPOS>MOLECULE
*****
 37 41 0 0 0
SMALL
GASTEIGER

@<TRIPOS>ATOM
      1 C         139.1025  143.3149  164.1237 C.2     1  UNL1        0.2352
      2 O         137.7087  143.4834  164.6518 O.2     1  UNL1       -0.2737
      3 N         139.9689  142.2022  164.6350 N.am    1  UNL1       -0.3008
      4 H         140.8837  142.0916  164.2884 H       1  UNL1        0.1497
      5 N         139.5177  145.1937  164.2521 N.3     1  UNL1       -0.3162
      6 C         139.6301  144.2590  163.0844 C.3     1  UNL1        0.1166
      7 C         139.5593  142.9964  162.2775 C.3     1  UNL1        0.0739
      8 C         139.9770  143.0025  160.8370 C.3     1  UNL1        0.2039
      9 N         140.4656  144.2713  160.2031 N.pl3   1  UNL1       -0.1931
     10 C         140.5364  145.5338  161.0098 C.3     1  UNL1        0.2039
     11 C         140.1187  145.5277  162.4505 C.3     1  UNL1        0.0739
     12 H         139.1615  144.6853  165.0614 H       1  UNL1        0.1192
     13 H         138.8781  145.9533  164.0192 H       1  UNL1        0.1192
     14 C         140.8833  144.2773  158.7624 C.2     1  UNL1        0.3205
     15 N         140.0085  144.9253  157.7306 N.2     1  UNL1        0.0097
     16 C         140.4261  144.9313  156.2900 C.2     1  UNL1        0.4717
     17 N         141.7188  144.2895  155.8811 N.2     1  UNL1        0.0158
     18 C         142.5937  143.6416  156.9129 C.2     1  UNL1        0.3714
     19 N         143.9130  142.9352  156.8098 N.2     1  UNL1       -0.0339
     20 C         144.3106  142.4926  158.1868 C.2     1  UNL1        0.2323
     21 C         143.2371  142.9254  159.1409 C.2     1  UNL1        0.0486
     22 C         142.1760  143.6355  158.3536 C.3     1  UNL1        0.2428
     23 C         139.4414  141.2580  165.6744 C.3     1  UNL1        0.0984
     24 C         139.8821  141.3918  167.1019 C.ar    1  UNL1       -0.0041
     25 C         140.5272  142.6619  167.5719 C.ar    1  UNL1       -0.0018
     26 C         140.9679  142.7956  168.9994 C.ar    1  UNL1        0.0111
     27 C         140.7634  141.6593  169.9570 C.ar    1  UNL1        0.0577
     28 CL        141.2041  141.7932  171.3846 Cl      1  UNL1       -0.0822
     29 C         140.1183  140.3893  169.4872 C.ar    1  UNL1        0.0111
     30 C         139.6776  140.2555  168.0596 C.ar    1  UNL1       -0.0018
     31 C         138.4732  140.1801  165.2862 C.3     1  UNL1        0.0504
     32 C         138.6025  139.4995  163.9557 C.ar    1  UNL1       -0.0202
     33 C         139.5834  138.3785  163.7789 C.ar    1  UNL1       -0.0042
     34 C         139.7126  137.6980  162.4485 C.ar    1  UNL1       -0.0003
     35 C         138.8610  138.1384  161.2949 C.ar    1  UNL1       -0.0000
     36 C         137.8801  139.2594  161.4716 C.ar    1  UNL1       -0.0003
     37 C         137.7509  139.9399  162.8021 C.ar    1  UNL1       -0.0042
@<TRIPOS>BOND
     1     5     6    1
     2     6     1    1
     3     1     2    2
     4     1     3   am
     5     3    23    1
     6    23    31    1
     7    31    32    1
     8    32    33   ar
     9    33    34   ar
    10    34    35   ar
    11    35    36   ar
    12    36    37   ar
    13    23    24    1
    14    24    25   ar
    15    25    26   ar
    16    26    27   ar
    17    27    28    1
    18    27    29   ar
    19    29    30   ar
    20     6     7    1
    21     7     8    1
    22     8     9    1
    23     9    14    1
    24    14    15    2
    25    15    16    1
    26    16    17    2
    27    17    18    1
    28    18    19    2
    29    19    20    1
    30    20    21    2
    31    21    22    1
    32     9    10    1
    33    10    11    1
    34    11     6    1
    35    37    32   ar
    36    30    24   ar
    37    22    14    1
    38    22    18    1
    39     5    12    1
    40     5    13    1
    41     3     4    1
@<TRIPOS>MOLECULE
*****
 37 41 0 0 0
SMALL
GASTEIGER

@<TRIPOS>ATOM
      1 C         140.5492  143.0857  164.4878 C.2     1  UNL1        0.2352
      2 O         141.9306  142.5031  164.5346 O.2     1  UNL1       -0.2737
      3 N         139.5367  142.6994  165.5250 N.am    1  UNL1       -0.3008
      4 H         138.6301  143.0818  165.4943 H       1  UNL1        0.1497
      5 N         139.4775  144.6868  164.5686 N.3     1  UNL1       -0.3162
      6 C         140.1801  144.0547  163.4040 C.3     1  UNL1        0.1166
      7 C         141.0110  143.0860  162.6156 C.3     1  UNL1        0.0739
      8 C         141.2288  143.3059  161.1479 C.3     1  UNL1        0.2039
      9 N         140.6157  144.4944  160.4684 N.pl3   1  UNL1       -0.1931
     10 C         139.7849  145.4631  161.2567 C.3     1  UNL1        0.2039
     11 C         139.5671  145.2432  162.7245 C.3     1  UNL1        0.0739
     12 H         139.6379  144.1279  165.4066 H       1  UNL1        0.1192
     13 H         138.4767  144.7334  164.3774 H       1  UNL1        0.1192
     14 C         140.8335  144.7142  159.0007 C.2     1  UNL1        0.3205
     15 N         141.9101  145.6486  158.5339 N.2     1  UNL1        0.0097
     16 C         142.1279  145.8684  157.0663 C.2     1  UNL1        0.4717
     17 N         141.2691  145.1539  156.0652 N.2     1  UNL1        0.0158
     18 C         140.1925  144.2195  156.5320 C.2     1  UNL1        0.3714
     19 N         139.1971  143.3821  155.7851 N.2     1  UNL1       -0.0339
     20 C         138.3641  142.6447  156.7913 C.2     1  UNL1        0.2323
     21 C         138.8447  143.0264  158.1600 C.2     1  UNL1        0.0486
     22 C         139.9747  143.9997  157.9998 C.3     1  UNL1        0.2428
     23 C         139.9057  141.7304  166.6090 C.3     1  UNL1        0.0984
     24 C         140.8026  142.1650  167.7300 C.ar    1  UNL1       -0.0041
     25 C         140.2839  143.0917  168.7893 C.ar    1  UNL1       -0.0018
     26 C         141.1807  143.5263  169.9103 C.ar    1  UNL1        0.0111
     27 C         142.5963  143.0341  169.9721 C.ar    1  UNL1        0.0577
     28 CL        143.4932  143.4687  171.0932 Cl      1  UNL1       -0.0822
     29 C         143.1151  142.1073  168.9129 C.ar    1  UNL1        0.0111
     30 C         142.2182  141.6727  167.7918 C.ar    1  UNL1       -0.0018
     31 C         139.3778  140.3268  166.5718 C.3     1  UNL1        0.0504
     32 C         139.9660  139.3293  165.6183 C.ar    1  UNL1       -0.0202
     33 C         139.0921  138.6609  164.5987 C.ar    1  UNL1       -0.0042
     34 C         139.6803  137.6634  163.6453 C.ar    1  UNL1       -0.0003
     35 C         141.1422  137.3345  163.7114 C.ar    1  UNL1       -0.0000
     36 C         142.0161  138.0030  164.7309 C.ar    1  UNL1       -0.0003
     37 C         141.4279  139.0004  165.6843 C.ar    1  UNL1       -0.0042
@<TRIPOS>BOND
     1     5     6    1
     2     6     1    1
     3     1     2    2
     4     1     3   am
     5     3    23    1
     6    23    31    1
     7    31    32    1
     8    32    33   ar
     9    33    34   ar
    10    34    35   ar
    11    35    36   ar
    12    36    37   ar
    13    23    24    1
    14    24    25   ar
    15    25    26   ar
    16    26    27   ar
    17    27    28    1
    18    27    29   ar
    19    29    30   ar
    20     6     7    1
    21     7     8    1
    22     8     9    1
    23     9    14    1
    24    14    15    2
    25    15    16    1
    26    16    17    2
    27    17    18    1
    28    18    19    2
    29    19    20    1
    30    20    21    2
    31    21    22    1
    32     9    10    1
    33    10    11    1
    34    11     6    1
    35    37    32   ar
    36    30    24   ar
    37    22    14    1
    38    22    18    1
    39     5    12    1
    40     5    13    1
    41     3     4    1
@<TRIPOS>MOLECULE
*****
 37 41 0 0 0
SMALL
GASTEIGER

@<TRIPOS>ATOM
      1 C         140.4483  138.5268  162.2690 C.2     1  UNL1        0.2352
      2 O         139.2570  137.6694  161.9597 O.2     1  UNL1       -0.2737
      3 N         140.9571  139.5004  161.2476 N.am    1  UNL1       -0.3008
      4 H         141.7390  140.0632  161.4506 H       1  UNL1        0.1497
      5 N         141.4854  137.0788  163.0081 N.3     1  UNL1       -0.3162
      6 C         141.1308  138.4108  163.5997 C.3     1  UNL1        0.1166
      7 C         140.5391  139.7831  163.7292 C.3     1  UNL1        0.0739
      8 C         140.7532  140.5768  164.9838 C.3     1  UNL1        0.2039
      9 N         141.5589  139.9982  166.1091 N.pl3   1  UNL1       -0.1931
     10 C         142.1505  138.6259  165.9796 C.3     1  UNL1        0.2039
     11 C         141.9364  137.8322  164.7249 C.3     1  UNL1        0.0739
     12 H         141.0814  137.0029  162.0746 H       1  UNL1        0.1192
     13 H         141.1160  136.3347  163.6000 H       1  UNL1        0.1192
     14 C         141.7729  140.7919  167.3637 C.2     1  UNL1        0.3205
     15 N         143.0139  141.6188  167.5256 N.2     1  UNL1        0.0097
     16 C         143.2279  142.4125  168.7802 C.2     1  UNL1        0.4717
     17 N         142.2009  142.3794  169.8731 N.2     1  UNL1        0.0158
     18 C         140.9599  141.5525  169.7112 C.2     1  UNL1        0.3714
     19 N         139.7807  141.3257  170.6101 N.2     1  UNL1       -0.0339
     20 C         138.8379  140.3917  169.9110 C.2     1  UNL1        0.2323
     21 C         139.4344  140.0413  168.5800 C.2     1  UNL1        0.0486
     22 C         140.7459  140.7588  168.4565 C.3     1  UNL1        0.2428
     23 C         140.2746  139.6165  159.9169 C.3     1  UNL1        0.0984
     24 C         140.6851  138.7244  158.7831 C.ar    1  UNL1       -0.0041
     25 C         142.0953  138.2199  158.6984 C.ar    1  UNL1       -0.0018
     26 C         142.5058  137.3278  157.5646 C.ar    1  UNL1        0.0111
     27 C         141.5062  136.9401  156.5155 C.ar    1  UNL1        0.0577
     28 CL        141.9168  136.0480  155.3816 Cl      1  UNL1       -0.0822
     29 C         140.0961  137.4445  156.6002 C.ar    1  UNL1        0.0111
     30 C         139.6855  138.3367  157.7340 C.ar    1  UNL1       -0.0018
     31 C         139.1816  140.6248  159.7201 C.3     1  UNL1        0.0504
     32 C         138.7011  141.4460  160.8797 C.ar    1  UNL1       -0.0202
     33 C         139.2310  142.8340  161.0864 C.ar    1  UNL1       -0.0042
     34 C         138.7504  143.6552  162.2460 C.ar    1  UNL1       -0.0003
     35 C         137.7401  143.0884  163.1989 C.ar    1  UNL1       -0.0000
     36 C         137.2103  141.7004  162.9922 C.ar    1  UNL1       -0.0003
     37 C         137.6908  140.8793  161.8326 C.ar    1  UNL1       -0.0042
@<TRIPOS>BOND
     1     5     6    1
     2     6     1    1
     3     1     2    2
     4     1     3   am
     5     3    23    1
     6    23    31    1
     7    31    32    1
     8    32    33   ar
     9    33    34   ar
    10    34    35   ar
    11    35    36   ar
    12    36    37   ar
    13    23    24    1
    14    24    25   ar
    15    25    26   ar
    16    26    27   ar
    17    27    28    1
    18    27    29   ar
    19    29    30   ar
    20     6     7    1
    21     7     8    1
    22     8     9    1
    23     9    14    1
    24    14    15    2
    25    15    16    1
    26    16    17    2
    27    17    18    1
    28    18    19    2
    29    19    20    1
    30    20    21    2
    31    21    22    1
    32     9    10    1
    33    10    11    1
    34    11     6    1
    35    37    32   ar
    36    30    24   ar
    37    22    14    1
    38    22    18    1
    39     5    12    1
    40     5    13    1
    41     3     4    1
@<TRIPOS>MOLECULE
*****
 37 41 0 0 0
SMALL
GASTEIGER

@<TRIPOS>ATOM
      1 C         141.8312  140.0437  162.5560 C.2     1  UNL1        0.2352
      2 O         141.2842  139.0068  161.6202 O.2     1  UNL1       -0.2737
      3 N         142.0586  141.4453  162.0724 N.am    1  UNL1       -0.3008
      4 H         142.4176  142.1258  162.6866 H       1  UNL1        0.1497
      5 N         143.2036  138.8861  163.2596 N.3     1  UNL1       -0.3162
      6 C         142.1507  139.6791  163.9755 C.3     1  UNL1        0.1166
      7 C         140.9868  140.5987  164.1985 C.3     1  UNL1        0.0739
      8 C         140.5082  140.8783  165.5922 C.3     1  UNL1        0.2039
      9 N         141.1934  140.2383  166.7631 N.pl3   1  UNL1       -0.1931
     10 C         142.3573  139.3187  166.5402 C.3     1  UNL1        0.2039
     11 C         142.8359  139.0391  165.1464 C.3     1  UNL1        0.0739
     12 H         143.1153  139.0333  162.2542 H       1  UNL1        0.1192
     13 H         143.0846  137.8951  163.4699 H       1  UNL1        0.1192
     14 C         140.7147  140.5179  168.1569 C.2     1  UNL1        0.3205
     15 N         139.4133  139.9431  168.6324 N.2     1  UNL1        0.0097
     16 C         138.9346  140.2227  170.0261 C.2     1  UNL1        0.4717
     17 N         139.7572  141.0772  170.9445 N.2     1  UNL1        0.0158
     18 C         141.0585  141.6520  170.4690 C.2     1  UNL1        0.3714
     19 N         142.0768  142.5232  171.1428 N.2     1  UNL1       -0.0339
     20 C         143.1849  142.7820  170.1655 C.2     1  UNL1        0.2323
     21 C         142.8514  142.0708  168.8876 C.2     1  UNL1        0.0486
     22 C         141.5373  141.3724  169.0752 C.3     1  UNL1        0.2428
     23 C         141.7390  141.8100  160.6529 C.3     1  UNL1        0.0984
     24 C         142.7761  141.6386  159.5829 C.ar    1  UNL1       -0.0041
     25 C         142.7624  140.4157  158.7142 C.ar    1  UNL1       -0.0018
     26 C         143.7995  140.2443  157.6441 C.ar    1  UNL1        0.0111
     27 C         144.8503  141.2957  157.4428 C.ar    1  UNL1        0.0577
     28 CL        145.8874  141.1242  156.3726 Cl      1  UNL1       -0.0822
     29 C         144.8640  142.5185  158.3114 C.ar    1  UNL1        0.0111
     30 C         143.8269  142.6899  159.3815 C.ar    1  UNL1       -0.0018
     31 C         140.3824  142.3462  160.3036 C.3     1  UNL1        0.0504
     32 C         139.5018  142.9153  161.3764 C.ar    1  UNL1       -0.0202
     33 C         138.4114  142.0769  161.9748 C.ar    1  UNL1       -0.0042
     34 C         137.5309  142.6461  163.0475 C.ar    1  UNL1       -0.0003
     35 C         137.7408  144.0535  163.5218 C.ar    1  UNL1       -0.0000
     36 C         138.8313  144.8919  162.9234 C.ar    1  UNL1       -0.0003
     37 C         139.7117  144.3227  161.8507 C.ar    1  UNL1       -0.0042
@<TRIPOS>BOND
     1     5     6    1
     2     6     1    1
     3     1     2    2
     4     1     3   am
     5     3    23    1
     6    23    31    1
     7    31    32    1
     8    32    33   ar
     9    33    34   ar
    10    34    35   ar
    11    35    36   ar
    12    36    37   ar
    13    23    24    1
    14    24    25   ar
    15    25    26   ar
    16    26    27   ar
    17    27    28    1
    18    27    29   ar
    19    29    30   ar
    20     6     7    1
    21     7     8    1
    22     8     9    1
    23     9    14    1
    24    14    15    2
    25    15    16    1
    26    16    17    2
    27    17    18    1
    28    18    19    2
    29    19    20    1
    30    20    21    2
    31    21    22    1
    32     9    10    1
    33    10    11    1
    34    11     6    1
    35    37    32   ar
    36    30    24   ar
    37    22    14    1
    38    22    18    1
    39     5    12    1
    40     5    13    1
    41     3     4    1
@<TRIPOS>MOLECULE
*****
 37 41 0 0 0
SMALL
GASTEIGER

@<TRIPOS>ATOM
      1 C         142.1837  140.2372  162.6492 C.2     1  UNL1        0.2352
      2 O         143.2877  140.8992  161.8792 O.2     1  UNL1       -0.2737
      3 N         140.8523  140.0024  161.9995 N.am    1  UNL1       -0.3008
      4 H         140.1277  139.5679  162.5050 H       1  UNL1        0.1497
      5 N         143.4669  138.9972  163.3803 N.3     1  UNL1       -0.3162
      6 C         142.4111  139.8100  164.0690 C.3     1  UNL1        0.1166
      7 C         141.2762  140.7713  164.2647 C.3     1  UNL1        0.0739
      8 C         140.7355  141.0230  165.6409 C.3     1  UNL1        0.2039
      9 N         141.3295  140.3135  166.8216 N.pl3   1  UNL1       -0.1931
     10 C         142.4643  139.3523  166.6260 C.3     1  UNL1        0.2039
     11 C         143.0051  139.1006  165.2496 C.3     1  UNL1        0.0739
     12 H         143.4389  139.1829  162.3777 H       1  UNL1        0.1192
     13 H         143.2956  138.0057  163.5473 H       1  UNL1        0.1192
     14 C         140.7887  140.5653  168.1979 C.2     1  UNL1        0.3205
     15 N         139.4916  139.9412  168.6198 N.2     1  UNL1        0.0097
     16 C         138.9508  140.1929  169.9959 C.2     1  UNL1        0.4717
     17 N         139.7070  141.0689  170.9504 N.2     1  UNL1        0.0158
     18 C         141.0041  141.6930  170.5285 C.2     1  UNL1        0.3714
     19 N         141.9644  142.5945  171.2462 N.2     1  UNL1       -0.0339
     20 C         143.0988  142.8998  170.3135 C.2     1  UNL1        0.2323
     21 C         142.8395  142.1871  169.0194 C.2     1  UNL1        0.0486
     22 C         141.5449  141.4412  169.1523 C.3     1  UNL1        0.2428
     23 C         140.6248  140.4295  160.5797 C.3     1  UNL1        0.0984
     24 C         140.8348  139.4536  159.4601 C.ar    1  UNL1       -0.0041
     25 C         142.2125  138.9418  159.1598 C.ar    1  UNL1       -0.0018
     26 C         142.4225  137.9659  158.0402 C.ar    1  UNL1        0.0111
     27 C         141.2548  137.5019  157.2209 C.ar    1  UNL1        0.0577
     28 CL        141.4649  136.5259  156.1013 Cl      1  UNL1       -0.0822
     29 C         139.8772  138.0137  157.5211 C.ar    1  UNL1        0.0111
     30 C         139.6672  138.9896  158.6408 C.ar    1  UNL1       -0.0018
     31 C         140.1874  141.8326  160.2796 C.3     1  UNL1        0.0504
     32 C         139.6965  142.7181  161.3864 C.ar    1  UNL1       -0.0202
     33 C         138.2590  142.6611  161.8109 C.ar    1  UNL1       -0.0042
     34 C         137.7682  143.5466  162.9177 C.ar    1  UNL1       -0.0003
     35 C         138.7149  144.4891  163.5999 C.ar    1  UNL1       -0.0000
     36 C         140.1525  144.5461  163.1754 C.ar    1  UNL1       -0.0003
     37 C         140.6432  143.6606  162.0686 C.ar    1  UNL1       -0.0042
@<TRIPOS>BOND
     1     5     6    1
     2     6     1    1
     3     1     2    2
     4     1     3   am
     5     3    23    1
     6    23    31    1
     7    31    32    1
     8    32    33   ar
     9    33    34   ar
    10    34    35   ar
    11    35    36   ar
    12    36    37   ar
    13    23    24    1
    14    24    25   ar
    15    25    26   ar
    16    26    27   ar
    17    27    28    1
    18    27    29   ar
    19    29    30   ar
    20     6     7    1
    21     7     8    1
    22     8     9    1
    23     9    14    1
    24    14    15    2
    25    15    16    1
    26    16    17    2
    27    17    18    1
    28    18    19    2
    29    19    20    1
    30    20    21    2
    31    21    22    1
    32     9    10    1
    33    10    11    1
    34    11     6    1
    35    37    32   ar
    36    30    24   ar
    37    22    14    1
    38    22    18    1
    39     5    12    1
    40     5    13    1
    41     3     4    1
@<TRIPOS>MOLECULE
*****
 37 41 0 0 0
SMALL
GASTEIGER

@<TRIPOS>ATOM
      1 C         141.7722  141.3279  164.1081 C.2     1  UNL1        0.2352
      2 O         142.0707  139.9613  164.6496 O.2     1  UNL1       -0.2737
      3 N         140.5723  142.0831  164.5978 N.am    1  UNL1       -0.3008
      4 H         140.3763  142.9801  164.2424 H       1  UNL1        0.1497
      5 N         143.6838  141.5810  164.1259 N.3     1  UNL1       -0.3162
      6 C         142.6735  141.9393  163.0767 C.3     1  UNL1        0.1166
      7 C         141.3502  142.0854  162.3856 C.3     1  UNL1        0.0739
      8 C         141.2790  142.7183  161.0277 C.3     1  UNL1        0.2039
      9 N         142.5312  143.2054  160.3606 N.pl3   1  UNL1       -0.1931
     10 C         143.8546  143.0594  161.0517 C.3     1  UNL1        0.2039
     11 C         143.9256  142.4264  162.4097 C.3     1  UNL1        0.0739
     12 H         143.2118  141.1422  164.9166 H       1  UNL1        0.1192
     13 H         144.1610  142.4257  164.4409 H       1  UNL1        0.1192
     14 C         142.4600  143.8384  159.0026 C.2     1  UNL1        0.3205
     15 N         142.0545  145.2760  158.8656 N.2     1  UNL1        0.0097
     16 C         141.9833  145.9090  157.5076 C.2     1  UNL1        0.4717
     17 N         142.3177  145.1044  156.2865 N.2     1  UNL1        0.0158
     18 C         142.7232  143.6668  156.4236 C.2     1  UNL1        0.3714
     19 N         143.1075  142.6312  155.4087 N.2     1  UNL1       -0.0339
     20 C         143.4161  141.3582  156.1395 C.2     1  UNL1        0.2323
     21 C         143.2227  141.6070  157.6061 C.2     1  UNL1        0.0486
     22 C         142.7944  143.0338  157.7816 C.3     1  UNL1        0.2428
     23 C         139.6708  141.4717  165.6292 C.3     1  UNL1        0.0984
     24 C         140.0610  141.4993  167.0773 C.ar    1  UNL1       -0.0041
     25 C         140.5838  142.7651  167.6892 C.ar    1  UNL1       -0.0018
     26 C         140.9739  142.7927  169.1373 C.ar    1  UNL1        0.0111
     27 C         140.8412  141.5545  169.9735 C.ar    1  UNL1        0.0577
     28 CL        141.2313  141.5821  171.4217 Cl      1  UNL1       -0.0822
     29 C         140.3184  140.2887  169.3616 C.ar    1  UNL1        0.0111
     30 C         139.9283  140.2611  167.9135 C.ar    1  UNL1       -0.0018
     31 C         138.3793  140.8328  165.2124 C.3     1  UNL1        0.0504
     32 C         138.3391  139.9385  164.0087 C.ar    1  UNL1       -0.0202
     33 C         137.7981  140.4550  162.7085 C.ar    1  UNL1       -0.0042
     34 C         137.7579  139.5607  161.5049 C.ar    1  UNL1       -0.0003
     35 C         138.2588  138.1502  161.6014 C.ar    1  UNL1       -0.0000
     36 C         138.7999  137.6337  162.9016 C.ar    1  UNL1       -0.0003
     37 C         138.8401  138.5280  164.1052 C.ar    1  UNL1       -0.0042
@<TRIPOS>BOND
     1     5     6    1
     2     6     1    1
     3     1     2    2
     4     1     3   am
     5     3    23    1
     6    23    31    1
     7    31    32    1
     8    32    33   ar
     9    33    34   ar
    10    34    35   ar
    11    35    36   ar
    12    36    37   ar
    13    23    24    1
    14    24    25   ar
    15    25    26   ar
    16    26    27   ar
    17    27    28    1
    18    27    29   ar
    19    29    30   ar
    20     6     7    1
    21     7     8    1
    22     8     9    1
    23     9    14    1
    24    14    15    2
    25    15    16    1
    26    16    17    2
    27    17    18    1
    28    18    19    2
    29    19    20    1
    30    20    21    2
    31    21    22    1
    32     9    10    1
    33    10    11    1
    34    11     6    1
    35    37    32   ar
    36    30    24   ar
    37    22    14    1
    38    22    18    1
    39     5    12    1
    40     5    13    1
    41     3     4    1
@<TRIPOS>MOLECULE
*****
 37 41 0 0 0
SMALL
GASTEIGER

@<TRIPOS>ATOM
      1 C         141.3761  139.7628  163.4848 C.2     1  UNL1        0.2352
      2 O         141.5796  141.2460  163.5787 O.2     1  UNL1       -0.2737
      3 N         140.4720  139.0666  164.4585 N.am    1  UNL1       -0.3008
      4 H         140.3385  138.0932  164.3968 H       1  UNL1        0.1497
      5 N         142.5355  138.2292  163.6345 N.3     1  UNL1       -0.3162
      6 C         142.0766  138.9758  162.4172 C.3     1  UNL1        0.1166
      7 C         141.3744  139.9957  161.5705 C.3     1  UNL1        0.0739
      8 C         141.5321  139.9692  160.0792 C.3     1  UNL1        0.2039
      9 N         142.3920  138.9229  159.4343 N.pl3   1  UNL1       -0.1931
     10 C         143.0942  137.9030  160.2809 C.3     1  UNL1        0.2039
     11 C         142.9365  137.9295  161.7723 C.3     1  UNL1        0.0739
     12 H         142.1317  138.6568  164.4679 H       1  UNL1        0.1192
     13 H         143.5532  138.2663  163.6926 H       1  UNL1        0.1192
     14 C         142.5496  138.8965  157.9428 C.2     1  UNL1        0.3205
     15 N         143.8015  139.4295  157.3114 N.2     1  UNL1        0.0097
     16 C         143.9592  139.4031  155.8200 C.2     1  UNL1        0.4717
     17 N         142.8650  138.8437  154.9599 N.2     1  UNL1        0.0158
     18 C         141.6131  138.3106  155.5913 C.2     1  UNL1        0.3714
     19 N         140.3736  137.7025  155.0048 N.2     1  UNL1       -0.0339
     20 C         139.4500  137.3531  156.1338 C.2     1  UNL1        0.2323
     21 C         140.1185  137.7452  157.4181 C.2     1  UNL1        0.0486
     22 C         141.4555  138.3370  157.0827 C.3     1  UNL1        0.2428
     23 C         139.7714  139.8537  165.5261 C.3     1  UNL1        0.0984
     24 C         140.3891  139.9876  166.8864 C.ar    1  UNL1       -0.0041
     25 C         141.8818  140.0002  167.0344 C.ar    1  UNL1       -0.0018
     26 C         142.4994  140.1341  168.3948 C.ar    1  UNL1        0.0111
     27 C         141.6245  140.2554  169.6071 C.ar    1  UNL1        0.0577
     28 CL        142.2422  140.3893  170.9675 Cl      1  UNL1       -0.0822
     29 C         140.1319  140.2428  169.4591 C.ar    1  UNL1        0.0111
     30 C         139.5141  140.1089  168.0987 C.ar    1  UNL1       -0.0018
     31 C         138.4532  140.5068  165.2333 C.3     1  UNL1        0.0504
     32 C         138.4134  141.8525  164.5718 C.ar    1  UNL1       -0.0202
     33 C         139.0088  143.0446  165.2605 C.ar    1  UNL1       -0.0042
     34 C         138.9690  144.3902  164.5989 C.ar    1  UNL1       -0.0003
     35 C         138.3338  144.5437  163.2488 C.ar    1  UNL1       -0.0000
     36 C         137.7385  143.3516  162.5600 C.ar    1  UNL1       -0.0003
     37 C         137.7783  142.0060  163.2216 C.ar    1  UNL1       -0.0042
@<TRIPOS>BOND
     1     5     6    1
     2     6     1    1
     3     1     2    2
     4     1     3   am
     5     3    23    1
     6    23    31    1
     7    31    32    1
     8    32    33   ar
     9    33    34   ar
    10    34    35   ar
    11    35    36   ar
    12    36    37   ar
    13    23    24    1
    14    24    25   ar
    15    25    26   ar
    16    26    27   ar
    17    27    28    1
    18    27    29   ar
    19    29    30   ar
    20     6     7    1
    21     7     8    1
    22     8     9    1
    23     9    14    1
    24    14    15    2
    25    15    16    1
    26    16    17    2
    27    17    18    1
    28    18    19    2
    29    19    20    1
    30    20    21    2
    31    21    22    1
    32     9    10    1
    33    10    11    1
    34    11     6    1
    35    37    32   ar
    36    30    24   ar
    37    22    14    1
    38    22    18    1
    39     5    12    1
    40     5    13    1
    41     3     4    1
