@<TRIPOS>MOLECULE
*****
 38 42 0 0 0
SMALL
GASTEIGER

@<TRIPOS>ATOM
      1 N         141.5817  142.0177  168.8241 N.3     1  UNL1       -0.1487
      2 C         141.8768  140.6207  169.2840 C.3     1  UNL1        0.0849
      3 C         143.0429  141.1286  170.0790 C.3     1  UNL1        0.0206
      4 C         143.3379  139.7316  170.5388 C.3     1  UNL1        0.0035
      5 C         142.1718  139.2237  169.7437 C.3     1  UNL1        0.0206
      6 C         140.7106  140.1127  168.4889 C.ar    1  UNL1       -0.0077
      7 C         139.3541  140.0209  169.1224 C.ar    1  UNL1       -0.0030
      8 C         138.1879  139.5129  168.3273 C.ar    1  UNL1       -0.0003
      9 C         138.3783  139.0969  166.8988 C.ar    1  UNL1       -0.0000
     10 C         139.7349  139.1887  166.2654 C.ar    1  UNL1       -0.0002
     11 C         140.9010  139.6966  167.0604 C.ar    1  UNL1       -0.0030
     12 C         139.9253  138.7726  164.8368 C.ar    1  UNL1        0.0017
     13 C         138.7330  138.5679  163.9500 C.ar    1  UNL1        0.0114
     14 C         138.9234  138.1518  162.5216 C.ar    1  UNL1        0.0585
     15 CL        137.7311  137.9470  161.6347 Cl      1  UNL1       -0.0822
     16 C         140.3062  137.9405  161.9799 C.ar    1  UNL1        0.0228
     17 C         141.4985  138.1453  162.8667 C.ar    1  UNL1        0.0585
     18 CL        142.8812  137.9340  162.3250 Cl      1  UNL1       -0.0822
     19 C         141.3080  138.5614  164.2951 C.ar    1  UNL1        0.0114
     20 S         141.6186  142.3494  167.3617 S.O2    1  UNL1        0.0638
     21 O         143.0205  141.8226  167.2775 O.2     1  UNL1       -0.1528
     22 O         140.2166  142.8761  167.4459 O.2     1  UNL1       -0.1528
     23 C         142.0930  143.9165  159.6269 C.3     1  UNL1        0.0436
     24 C         142.8726  143.1450  160.6502 C.3     1  UNL1        0.1336
     25 C         143.7086  142.8817  159.4329 C.3     1  UNL1        0.0436
     26 C         143.9425  142.2820  161.2507 C.3     1  UNL1        0.0448
     27 C         143.9057  141.9503  162.7131 C.3     1  UNL1        0.0330
     28 C         142.7989  142.4816  163.5750 C.ar    1  UNL1        0.0132
     29 C         142.7621  142.1499  165.0374 C.ar    1  UNL1        0.0186
     30 C         141.6554  142.6811  165.8993 C.ar    1  UNL1        0.1221
     31 C         140.5854  143.5440  165.2988 C.ar    1  UNL1        0.0230
     32 C         140.6222  143.8757  163.8364 C.ar    1  UNL1        0.0379
     33 C         141.7290  143.3445  162.9745 C.ar    1  UNL1        0.1342
     34 O         141.7659  143.6762  161.5121 O.3     1  UNL1       -0.4829
     35 C         141.2499  143.0829  169.8267 C.3     1  UNL1        0.1374
     36 C         140.3124  142.7819  170.9582 C.2     1  UNL1        0.0683
     37 O         138.9138  143.3234  170.9378 O.co2   1  UNL1       -0.5477
     38 O         140.7737  141.9393  172.1104 O.co2   1  UNL1       -0.5477
@<TRIPOS>UNITY_ATOM_ATTR
37 1
charge -1
@<TRIPOS>BOND
     1    23    24    1
     2    24    25    1
     3    24    26    1
     4    26    27    1
     5    27    28    1
     6    28    29   ar
     7    29    30   ar
     8    30    20    1
     9    20    21    2
    10    20    22    2
    11    20     1    1
    12     1    35    1
    13    35    36    1
    14    36    37   ar
    15    36    38   ar
    16     1     2    1
    17     2     6    1
    18     6     7   ar
    19     7     8   ar
    20     8     9   ar
    21     9    10   ar
    22    10    12    1
    23    12    13   ar
    24    13    14   ar
    25    14    15    1
    26    14    16   ar
    27    16    17   ar
    28    17    18    1
    29    17    19   ar
    30    10    11   ar
    31     2     3    1
    32     3     4    1
    33     4     5    1
    34    30    31   ar
    35    31    32   ar
    36    32    33   ar
    37    33    34    1
    38    34    24    1
    39    33    28   ar
    40     5     2    1
    41    11     6   ar
    42    19    12   ar
@<TRIPOS>MOLECULE
*****
 38 42 0 0 0
SMALL
GASTEIGER

@<TRIPOS>ATOM
      1 N         142.2398  142.0833  167.4994 N.3     1  UNL1       -0.1487
      2 C         141.2126  141.0943  167.9651 C.3     1  UNL1        0.0849
      3 C         140.6267  142.1318  168.8763 C.3     1  UNL1        0.0206
      4 C         139.5996  141.1428  169.3420 C.3     1  UNL1        0.0035
      5 C         140.1855  140.1053  168.4308 C.3     1  UNL1        0.0206
      6 C         141.7985  140.0568  167.0539 C.ar    1  UNL1       -0.0077
      7 C         142.9751  139.2422  167.5033 C.ar    1  UNL1       -0.0030
      8 C         143.5609  138.2046  166.5920 C.ar    1  UNL1       -0.0003
      9 C         142.9702  137.9818  165.2314 C.ar    1  UNL1       -0.0000
     10 C         141.7936  138.7965  164.7820 C.ar    1  UNL1       -0.0002
     11 C         141.2077  139.8340  165.6932 C.ar    1  UNL1       -0.0030
     12 C         141.2029  138.5736  163.4213 C.ar    1  UNL1        0.0017
     13 C         139.7137  138.5220  163.2494 C.ar    1  UNL1        0.0114
     14 C         139.1231  138.2992  161.8888 C.ar    1  UNL1        0.0585
     15 CL        137.6338  138.2476  161.7169 Cl      1  UNL1       -0.0822
     16 C         140.0216  138.1279  160.7000 C.ar    1  UNL1        0.0228
     17 C         141.5108  138.1794  160.8718 C.ar    1  UNL1        0.0585
     18 CL        142.4094  138.0081  159.6830 Cl      1  UNL1       -0.0822
     19 C         142.1014  138.4023  162.2325 C.ar    1  UNL1        0.0114
     20 S         142.1620  142.6484  166.1121 S.O2    1  UNL1        0.0638
     21 O         140.7154  142.9808  166.3286 O.2     1  UNL1       -0.1528
     22 O         143.6086  142.3159  165.8956 O.2     1  UNL1       -0.1528
     23 C         141.4894  145.4272  158.7409 C.3     1  UNL1        0.0436
     24 C         140.7917  144.4280  159.6155 C.3     1  UNL1        0.1336
     25 C         139.9749  144.2944  158.3645 C.3     1  UNL1        0.0436
     26 C         139.8104  143.3824  160.0556 C.3     1  UNL1        0.0448
     27 C         139.8882  142.8174  161.4430 C.3     1  UNL1        0.0330
     28 C         140.9473  143.2979  162.3902 C.ar    1  UNL1        0.0132
     29 C         141.0251  142.7329  163.7775 C.ar    1  UNL1        0.0186
     30 C         142.0842  143.2134  164.7247 C.ar    1  UNL1        0.1221
     31 C         143.0657  144.2590  164.2847 C.ar    1  UNL1        0.0230
     32 C         142.9879  144.8240  162.8973 C.ar    1  UNL1        0.0379
     33 C         141.9287  144.3434  161.9501 C.ar    1  UNL1        0.1342
     34 O         141.8509  144.9085  160.5628 O.3     1  UNL1       -0.4829
     35 C         143.3447  142.5072  168.4210 C.3     1  UNL1        0.1374
     36 C         143.2732  142.1724  169.8814 C.2     1  UNL1        0.0683
     37 O         143.5199  140.7661  170.3414 O.co2   1  UNL1       -0.5477
     38 O         142.9549  143.2438  170.8819 O.co2   1  UNL1       -0.5477
@<TRIPOS>UNITY_ATOM_ATTR
37 1
charge -1
@<TRIPOS>BOND
     1    23    24    1
     2    24    25    1
     3    24    26    1
     4    26    27    1
     5    27    28    1
     6    28    29   ar
     7    29    30   ar
     8    30    20    1
     9    20    21    2
    10    20    22    2
    11    20     1    1
    12     1    35    1
    13    35    36    1
    14    36    37   ar
    15    36    38   ar
    16     1     2    1
    17     2     6    1
    18     6     7   ar
    19     7     8   ar
    20     8     9   ar
    21     9    10   ar
    22    10    12    1
    23    12    13   ar
    24    13    14   ar
    25    14    15    1
    26    14    16   ar
    27    16    17   ar
    28    17    18    1
    29    17    19   ar
    30    10    11   ar
    31     2     3    1
    32     3     4    1
    33     4     5    1
    34    30    31   ar
    35    31    32   ar
    36    32    33   ar
    37    33    34    1
    38    34    24    1
    39    33    28   ar
    40     5     2    1
    41    11     6   ar
    42    19    12   ar
@<TRIPOS>MOLECULE
*****
 38 42 0 0 0
SMALL
GASTEIGER

@<TRIPOS>ATOM
      1 N         141.3545  142.1150  168.1541 N.3     1  UNL1       -0.1487
      2 C         140.5137  140.9396  168.5563 C.3     1  UNL1        0.0849
      3 C         139.7103  141.8244  169.4627 C.3     1  UNL1        0.0206
      4 C         138.8696  140.6491  169.8648 C.3     1  UNL1        0.0035
      5 C         139.6730  139.7643  168.9584 C.3     1  UNL1        0.0206
      6 C         141.3171  140.0548  167.6499 C.ar    1  UNL1       -0.0077
      7 C         142.6040  139.4555  168.1344 C.ar    1  UNL1       -0.0030
      8 C         143.4074  138.5707  167.2279 C.ar    1  UNL1       -0.0003
      9 C         142.9240  138.2852  165.8370 C.ar    1  UNL1       -0.0000
     10 C         141.6371  138.8845  165.3525 C.ar    1  UNL1       -0.0002
     11 C         140.8337  139.7693  166.2589 C.ar    1  UNL1       -0.0030
     12 C         141.1536  138.5989  163.9615 C.ar    1  UNL1        0.0017
     13 C         142.1365  138.2575  162.8812 C.ar    1  UNL1        0.0114
     14 C         141.6530  137.9719  161.4903 C.ar    1  UNL1        0.0585
     15 CL        142.6360  137.6305  160.4098 Cl      1  UNL1       -0.0822
     16 C         140.1866  138.0278  161.1797 C.ar    1  UNL1        0.0228
     17 C         139.2037  138.3693  162.2601 C.ar    1  UNL1        0.0585
     18 CL        137.7372  138.4252  161.9495 Cl      1  UNL1       -0.0822
     19 C         139.6871  138.6548  163.6510 C.ar    1  UNL1        0.0114
     20 S         141.4764  142.4897  166.7068 S.O2    1  UNL1        0.0638
     21 O         142.9611  142.2885  166.7798 O.2     1  UNL1       -0.1528
     22 O         139.9918  142.6908  166.6338 O.2     1  UNL1       -0.1528
     23 C         141.8521  144.6632  159.1145 C.3     1  UNL1        0.0436
     24 C         140.9912  144.9537  160.3081 C.3     1  UNL1        0.1336
     25 C         140.3172  145.8182  159.2842 C.3     1  UNL1        0.0436
     26 C         139.8963  145.5443  161.1460 C.3     1  UNL1        0.0448
     27 C         139.7744  145.1697  162.5934 C.3     1  UNL1        0.0330
     28 C         140.7473  144.2043  163.2027 C.ar    1  UNL1        0.0132
     29 C         140.6254  143.8297  164.6501 C.ar    1  UNL1        0.0186
     30 C         141.5984  142.8643  165.2594 C.ar    1  UNL1        0.1221
     31 C         142.6934  142.2736  164.4215 C.ar    1  UNL1        0.0230
     32 C         142.8153  142.6483  162.9742 C.ar    1  UNL1        0.0379
     33 C         141.8423  143.6137  162.3648 C.ar    1  UNL1        0.1342
     34 O         141.9642  143.9883  160.9175 O.3     1  UNL1       -0.4829
     35 C         142.0733  142.9156  169.1992 C.3     1  UNL1        0.1374
     36 C         143.1267  142.2673  170.0477 C.2     1  UNL1        0.0683
     37 O         142.7424  141.2205  171.0509 O.co2   1  UNL1       -0.5477
     38 O         144.5646  142.6659  169.8930 O.co2   1  UNL1       -0.5477
@<TRIPOS>UNITY_ATOM_ATTR
37 1
charge -1
@<TRIPOS>BOND
     1    23    24    1
     2    24    25    1
     3    24    26    1
     4    26    27    1
     5    27    28    1
     6    28    29   ar
     7    29    30   ar
     8    30    20    1
     9    20    21    2
    10    20    22    2
    11    20     1    1
    12     1    35    1
    13    35    36    1
    14    36    37   ar
    15    36    38   ar
    16     1     2    1
    17     2     6    1
    18     6     7   ar
    19     7     8   ar
    20     8     9   ar
    21     9    10   ar
    22    10    12    1
    23    12    13   ar
    24    13    14   ar
    25    14    15    1
    26    14    16   ar
    27    16    17   ar
    28    17    18    1
    29    17    19   ar
    30    10    11   ar
    31     2     3    1
    32     3     4    1
    33     4     5    1
    34    30    31   ar
    35    31    32   ar
    36    32    33   ar
    37    33    34    1
    38    34    24    1
    39    33    28   ar
    40     5     2    1
    41    11     6   ar
    42    19    12   ar
@<TRIPOS>MOLECULE
*****
 38 42 0 0 0
SMALL
GASTEIGER

@<TRIPOS>ATOM
      1 N         139.5142  140.8926  162.3489 N.3     1  UNL1       -0.1487
      2 C         139.1281  139.4529  162.5168 C.3     1  UNL1        0.0849
      3 C         137.9758  139.6523  161.5775 C.3     1  UNL1        0.0206
      4 C         137.5897  138.2126  161.7455 C.3     1  UNL1        0.0035
      5 C         138.7420  138.0132  162.6848 C.3     1  UNL1        0.0206
      6 C         140.2804  139.2535  163.4562 C.ar    1  UNL1       -0.0077
      7 C         141.5027  138.5147  162.9975 C.ar    1  UNL1       -0.0030
      8 C         142.6551  138.3153  163.9369 C.ar    1  UNL1       -0.0003
      9 C         142.5851  138.8546  165.3349 C.ar    1  UNL1       -0.0000
     10 C         141.3628  139.5934  165.7935 C.ar    1  UNL1       -0.0002
     11 C         140.2105  139.7928  164.8541 C.ar    1  UNL1       -0.0030
     12 C         141.2929  140.1327  167.1915 C.ar    1  UNL1        0.0017
     13 C         140.0142  140.0361  167.9695 C.ar    1  UNL1        0.0114
     14 C         139.9443  140.5754  169.3674 C.ar    1  UNL1        0.0585
     15 CL        138.6655  140.4788  170.1456 Cl      1  UNL1       -0.0822
     16 C         141.1532  141.2113  169.9873 C.ar    1  UNL1        0.0228
     17 C         142.4319  141.3079  169.2092 C.ar    1  UNL1        0.0585
     18 CL        143.6408  141.9439  169.8291 Cl      1  UNL1       -0.0822
     19 C         142.5018  140.7686  167.8113 C.ar    1  UNL1        0.0114
     20 S         140.7655  141.2515  161.6036 S.O2    1  UNL1        0.0638
     21 O         141.2273  142.0698  162.7728 O.2     1  UNL1       -0.1528
     22 O         140.3038  140.4332  160.4343 O.2     1  UNL1       -0.1528
     23 C         147.2368  142.9868  157.4060 C.3     1  UNL1        0.0436
     24 C         145.9381  142.2673  157.1920 C.3     1  UNL1        0.1336
     25 C         146.5566  142.0975  155.8359 C.3     1  UNL1        0.0436
     26 C         144.8543  141.4888  156.5070 C.3     1  UNL1        0.0448
     27 C         143.6030  141.1299  157.2523 C.3     1  UNL1        0.0330
     28 C         143.4356  141.5496  158.6826 C.ar    1  UNL1        0.0132
     29 C         142.1843  141.1907  159.4279 C.ar    1  UNL1        0.0186
     30 C         142.0168  141.6103  160.8582 C.ar    1  UNL1        0.1221
     31 C         143.1007  142.3889  161.5433 C.ar    1  UNL1        0.0230
     32 C         144.3519  142.7477  160.7980 C.ar    1  UNL1        0.0379
     33 C         144.5194  142.3280  159.3676 C.ar    1  UNL1        0.1342
     34 O         145.7707  142.6869  158.6223 O.3     1  UNL1       -0.4829
     35 C         138.6491  141.9734  162.9262 C.3     1  UNL1        0.1374
     36 C         138.1986  143.1146  162.0633 C.2     1  UNL1        0.0683
     37 O         138.0694  142.9281  160.5805 O.co2   1  UNL1       -0.5477
     38 O         137.8771  144.4422  162.6831 O.co2   1  UNL1       -0.5477
@<TRIPOS>UNITY_ATOM_ATTR
37 1
charge -1
@<TRIPOS>BOND
     1    23    24    1
     2    24    25    1
     3    24    26    1
     4    26    27    1
     5    27    28    1
     6    28    29   ar
     7    29    30   ar
     8    30    20    1
     9    20    21    2
    10    20    22    2
    11    20     1    1
    12     1    35    1
    13    35    36    1
    14    36    37   ar
    15    36    38   ar
    16     1     2    1
    17     2     6    1
    18     6     7   ar
    19     7     8   ar
    20     8     9   ar
    21     9    10   ar
    22    10    12    1
    23    12    13   ar
    24    13    14   ar
    25    14    15    1
    26    14    16   ar
    27    16    17   ar
    28    17    18    1
    29    17    19   ar
    30    10    11   ar
    31     2     3    1
    32     3     4    1
    33     4     5    1
    34    30    31   ar
    35    31    32   ar
    36    32    33   ar
    37    33    34    1
    38    34    24    1
    39    33    28   ar
    40     5     2    1
    41    11     6   ar
    42    19    12   ar
@<TRIPOS>MOLECULE
*****
 38 42 0 0 0
SMALL
GASTEIGER

@<TRIPOS>ATOM
      1 N         140.6895  141.8619  168.8129 N.3     1  UNL1       -0.1487
      2 C         142.1236  142.0517  169.2099 C.3     1  UNL1        0.0849
      3 C         141.7112  143.1025  170.1975 C.3     1  UNL1        0.0206
      4 C         143.1452  143.2922  170.5944 C.3     1  UNL1        0.0035
      5 C         143.5576  142.2414  169.6067 C.3     1  UNL1        0.0206
      6 C         142.5360  141.0008  168.2222 C.ar    1  UNL1       -0.0077
      7 C         142.5881  139.5604  168.6374 C.ar    1  UNL1       -0.0030
      8 C         143.0005  138.5095  167.6496 C.ar    1  UNL1       -0.0003
      9 C         143.3607  138.8991  166.2467 C.ar    1  UNL1       -0.0000
     10 C         143.3086  140.3395  165.8314 C.ar    1  UNL1       -0.0002
     11 C         142.8962  141.3904  166.8191 C.ar    1  UNL1       -0.0030
     12 C         143.6689  140.7290  164.4283 C.ar    1  UNL1        0.0017
     13 C         143.7878  139.6777  163.3651 C.ar    1  UNL1        0.0114
     14 C         144.1480  140.0672  161.9621 C.ar    1  UNL1        0.0585
     15 CL        144.2670  139.0158  160.8988 Cl      1  UNL1       -0.0822
     16 C         144.3894  141.5082  161.6223 C.ar    1  UNL1        0.0228
     17 C         144.2704  142.5595  162.6855 C.ar    1  UNL1        0.0585
     18 CL        144.5118  144.0005  162.3457 Cl      1  UNL1       -0.0822
     19 C         143.9102  142.1700  164.0885 C.ar    1  UNL1        0.0114
     20 S         140.2998  141.9068  167.3651 S.O2    1  UNL1        0.0638
     21 O         140.7542  143.3342  167.2871 O.2     1  UNL1       -0.1528
     22 O         139.8454  140.4794  167.4431 O.2     1  UNL1       -0.1528
     23 C         138.1567  141.8214  159.7554 C.3     1  UNL1        0.0436
     24 C         138.1931  140.8601  160.9063 C.3     1  UNL1        0.1336
     25 C         137.6324  139.9675  159.8390 C.3     1  UNL1        0.0436
     26 C         138.0347  139.5888  161.6866 C.3     1  UNL1        0.0448
     27 C         138.4243  139.5440  163.1344 C.3     1  UNL1        0.0330
     28 C         138.9724  140.7703  163.8019 C.ar    1  UNL1        0.0132
     29 C         139.3621  140.7254  165.2497 C.ar    1  UNL1        0.0186
     30 C         139.9102  141.9517  165.9173 C.ar    1  UNL1        0.1221
     31 C         140.0686  143.2230  165.1370 C.ar    1  UNL1        0.0230
     32 C         139.6789  143.2679  163.6892 C.ar    1  UNL1        0.0379
     33 C         139.1308  142.0415  163.0217 C.ar    1  UNL1        0.1342
     34 O         138.7411  142.0864  161.5739 O.3     1  UNL1       -0.4829
     35 C         139.6452  141.6273  169.8637 C.3     1  UNL1        0.1374
     36 C         139.3243  140.2295  170.3032 C.2     1  UNL1        0.0683
     37 O         140.4244  139.3120  170.7481 O.co2   1  UNL1       -0.5477
     38 O         137.9032  139.7492  170.2978 O.co2   1  UNL1       -0.5477
@<TRIPOS>UNITY_ATOM_ATTR
37 1
charge -1
@<TRIPOS>BOND
     1    23    24    1
     2    24    25    1
     3    24    26    1
     4    26    27    1
     5    27    28    1
     6    28    29   ar
     7    29    30   ar
     8    30    20    1
     9    20    21    2
    10    20    22    2
    11    20     1    1
    12     1    35    1
    13    35    36    1
    14    36    37   ar
    15    36    38   ar
    16     1     2    1
    17     2     6    1
    18     6     7   ar
    19     7     8   ar
    20     8     9   ar
    21     9    10   ar
    22    10    12    1
    23    12    13   ar
    24    13    14   ar
    25    14    15    1
    26    14    16   ar
    27    16    17   ar
    28    17    18    1
    29    17    19   ar
    30    10    11   ar
    31     2     3    1
    32     3     4    1
    33     4     5    1
    34    30    31   ar
    35    31    32   ar
    36    32    33   ar
    37    33    34    1
    38    34    24    1
    39    33    28   ar
    40     5     2    1
    41    11     6   ar
    42    19    12   ar
@<TRIPOS>MOLECULE
*****
 38 42 0 0 0
SMALL
GASTEIGER

@<TRIPOS>ATOM
      1 N         140.6332  141.8028  168.6984 N.3     1  UNL1       -0.1487
      2 C         142.0662  142.0299  169.0795 C.3     1  UNL1        0.0849
      3 C         141.6393  143.0865  170.0549 C.3     1  UNL1        0.0206
      4 C         143.0722  143.3135  170.4360 C.3     1  UNL1        0.0035
      5 C         143.4990  142.2570  169.4605 C.3     1  UNL1        0.0206
      6 C         142.4930  140.9734  168.1040 C.ar    1  UNL1       -0.0077
      7 C         142.5485  139.5366  168.5313 C.ar    1  UNL1       -0.0030
      8 C         142.9753  138.4800  167.5557 C.ar    1  UNL1       -0.0003
      9 C         143.3467  138.8603  166.1531 C.ar    1  UNL1       -0.0000
     10 C         143.2912  140.2971  165.7259 C.ar    1  UNL1       -0.0002
     11 C         142.8643  141.3536  166.7013 C.ar    1  UNL1       -0.0030
     12 C         143.6625  140.6774  164.3231 C.ar    1  UNL1        0.0017
     13 C         143.9092  142.1157  163.9763 C.ar    1  UNL1        0.0114
     14 C         144.2806  142.4958  162.5737 C.ar    1  UNL1        0.0585
     15 CL        144.5273  143.9342  162.2268 Cl      1  UNL1       -0.0822
     16 C         144.4052  141.4377  161.5178 C.ar    1  UNL1        0.0228
     17 C         144.1585  139.9994  161.8646 C.ar    1  UNL1        0.0585
     18 CL        144.2831  138.9413  160.8088 Cl      1  UNL1       -0.0822
     19 C         143.7871  139.6192  163.2673 C.ar    1  UNL1        0.0114
     20 S         140.2355  141.7852  167.2521 S.O2    1  UNL1        0.0638
     21 O         140.6778  143.2117  167.1131 O.2     1  UNL1       -0.1528
     22 O         139.7933  140.3586  167.3911 O.2     1  UNL1       -0.1528
     23 C         138.3457  141.9508  159.5769 C.3     1  UNL1        0.0436
     24 C         139.2385  142.7090  160.5140 C.3     1  UNL1        0.1336
     25 C         139.5220  143.4402  159.2353 C.3     1  UNL1        0.0436
     26 C         140.2297  143.7211  161.0070 C.3     1  UNL1        0.0448
     27 C         140.6273  143.7388  162.4532 C.3     1  UNL1        0.0330
     28 C         140.0338  142.7443  163.4065 C.ar    1  UNL1        0.0132
     29 C         140.4314  142.7620  164.8527 C.ar    1  UNL1        0.0186
     30 C         139.8379  141.7675  165.8059 C.ar    1  UNL1        0.1221
     31 C         138.8466  140.7553  165.3129 C.ar    1  UNL1        0.0230
     32 C         138.4490  140.7377  163.8667 C.ar    1  UNL1        0.0379
     33 C         139.0426  141.7322  162.9135 C.ar    1  UNL1        0.1342
     34 O         138.6449  141.7146  161.4673 O.3     1  UNL1       -0.4829
     35 C         139.5980  141.5934  169.7634 C.3     1  UNL1        0.1374
     36 C         139.3309  140.2140  170.2887 C.2     1  UNL1        0.0683
     37 O         140.4725  139.3407  170.7176 O.co2   1  UNL1       -0.5477
     38 O         137.9221  139.7080  170.3852 O.co2   1  UNL1       -0.5477
@<TRIPOS>UNITY_ATOM_ATTR
37 1
charge -1
@<TRIPOS>BOND
     1    23    24    1
     2    24    25    1
     3    24    26    1
     4    26    27    1
     5    27    28    1
     6    28    29   ar
     7    29    30   ar
     8    30    20    1
     9    20    21    2
    10    20    22    2
    11    20     1    1
    12     1    35    1
    13    35    36    1
    14    36    37   ar
    15    36    38   ar
    16     1     2    1
    17     2     6    1
    18     6     7   ar
    19     7     8   ar
    20     8     9   ar
    21     9    10   ar
    22    10    12    1
    23    12    13   ar
    24    13    14   ar
    25    14    15    1
    26    14    16   ar
    27    16    17   ar
    28    17    18    1
    29    17    19   ar
    30    10    11   ar
    31     2     3    1
    32     3     4    1
    33     4     5    1
    34    30    31   ar
    35    31    32   ar
    36    32    33   ar
    37    33    34    1
    38    34    24    1
    39    33    28   ar
    40     5     2    1
    41    11     6   ar
    42    19    12   ar
@<TRIPOS>MOLECULE
*****
 38 42 0 0 0
SMALL
GASTEIGER

@<TRIPOS>ATOM
      1 N         142.7396  141.8381  162.7773 N.3     1  UNL1       -0.1487
      2 C         143.8670  141.2093  163.5414 C.3     1  UNL1        0.0849
      3 C         144.8530  142.0208  162.7545 C.3     1  UNL1        0.0206
      4 C         145.9803  141.3921  163.5186 C.3     1  UNL1        0.0035
      5 C         144.9943  140.5806  164.3055 C.3     1  UNL1        0.0206
      6 C         142.8810  140.3978  164.3283 C.ar    1  UNL1       -0.0077
      7 C         142.5031  139.0219  163.8655 C.ar    1  UNL1       -0.0030
      8 C         141.5171  138.2104  164.6525 C.ar    1  UNL1       -0.0003
      9 C         140.9090  138.7748  165.9021 C.ar    1  UNL1       -0.0000
     10 C         141.2869  140.1507  166.3649 C.ar    1  UNL1       -0.0002
     11 C         142.2728  140.9622  165.5780 C.ar    1  UNL1       -0.0030
     12 C         140.6787  140.7150  167.6146 C.ar    1  UNL1        0.0017
     13 C         141.1446  142.0390  168.1437 C.ar    1  UNL1        0.0114
     14 C         140.5365  142.6033  169.3933 C.ar    1  UNL1        0.0585
     15 CL        141.0023  143.9274  169.9224 Cl      1  UNL1       -0.0822
     16 C         139.4624  141.8436  170.1139 C.ar    1  UNL1        0.0228
     17 C         138.9965  140.5196  169.5849 C.ar    1  UNL1        0.0585
     18 CL        137.9225  139.7599  170.3055 Cl      1  UNL1       -0.0822
     19 C         139.6047  139.9553  168.3352 C.ar    1  UNL1        0.0114
     20 S         142.0827  141.0878  161.6568 S.O2    1  UNL1        0.0638
     21 O         140.7349  141.4918  162.1764 O.2     1  UNL1       -0.1528
     22 O         143.4306  140.6838  161.1371 O.2     1  UNL1       -0.1528
     23 C         138.9166  136.9940  155.6798 C.3     1  UNL1        0.0436
     24 C         140.2641  137.1582  156.3181 C.3     1  UNL1        0.1336
     25 C         140.6051  136.1729  155.2398 C.3     1  UNL1        0.0436
     26 C         141.7299  136.9802  156.5820 C.3     1  UNL1        0.0448
     27 C         142.3868  137.7306  157.7025 C.3     1  UNL1        0.0330
     28 C         141.5779  138.6588  158.5592 C.ar    1  UNL1        0.0132
     29 C         142.2348  139.4092  159.6797 C.ar    1  UNL1        0.0186
     30 C         141.4258  140.3375  160.5363 C.ar    1  UNL1        0.1221
     31 C         139.9599  140.5155  160.2724 C.ar    1  UNL1        0.0230
     32 C         139.3031  139.7652  159.1519 C.ar    1  UNL1        0.0379
     33 C         140.1121  138.8368  158.2953 C.ar    1  UNL1        0.1342
     34 O         139.4552  138.0865  157.1748 O.3     1  UNL1       -0.4829
     35 C         142.2692  143.2171  163.1337 C.3     1  UNL1        0.1374
     36 C         142.7420  144.3991  162.3405 C.2     1  UNL1        0.0683
     37 O         142.0860  144.7368  161.0345 O.co2   1  UNL1       -0.5477
     38 O         143.8708  145.2435  162.8533 O.co2   1  UNL1       -0.5477
@<TRIPOS>UNITY_ATOM_ATTR
37 1
charge -1
@<TRIPOS>BOND
     1    23    24    1
     2    24    25    1
     3    24    26    1
     4    26    27    1
     5    27    28    1
     6    28    29   ar
     7    29    30   ar
     8    30    20    1
     9    20    21    2
    10    20    22    2
    11    20     1    1
    12     1    35    1
    13    35    36    1
    14    36    37   ar
    15    36    38   ar
    16     1     2    1
    17     2     6    1
    18     6     7   ar
    19     7     8   ar
    20     8     9   ar
    21     9    10   ar
    22    10    12    1
    23    12    13   ar
    24    13    14   ar
    25    14    15    1
    26    14    16   ar
    27    16    17   ar
    28    17    18    1
    29    17    19   ar
    30    10    11   ar
    31     2     3    1
    32     3     4    1
    33     4     5    1
    34    30    31   ar
    35    31    32   ar
    36    32    33   ar
    37    33    34    1
    38    34    24    1
    39    33    28   ar
    40     5     2    1
    41    11     6   ar
    42    19    12   ar
@<TRIPOS>MOLECULE
*****
 38 42 0 0 0
SMALL
GASTEIGER

@<TRIPOS>ATOM
      1 N         140.7234  142.8699  163.0975 N.3     1  UNL1       -0.1487
      2 C         139.2842  142.9504  163.5130 C.3     1  UNL1        0.0849
      3 C         139.1137  144.1878  162.6826 C.3     1  UNL1        0.0206
      4 C         137.6747  144.2683  163.0981 C.3     1  UNL1        0.0035
      5 C         137.8452  143.0309  163.9284 C.3     1  UNL1        0.0206
      6 C         139.4548  141.7129  164.3433 C.ar    1  UNL1       -0.0077
      7 C         138.8494  140.4171  163.8913 C.ar    1  UNL1       -0.0030
      8 C         139.0200  139.1796  164.7218 C.ar    1  UNL1       -0.0003
      9 C         139.7958  139.2380  166.0042 C.ar    1  UNL1       -0.0000
     10 C         140.4012  140.5338  166.4562 C.ar    1  UNL1       -0.0002
     11 C         140.2307  141.7713  165.6258 C.ar    1  UNL1       -0.0030
     12 C         141.1771  140.5922  167.7387 C.ar    1  UNL1        0.0017
     13 C         141.4442  141.9146  168.3941 C.ar    1  UNL1        0.0114
     14 C         142.2201  141.9729  169.6765 C.ar    1  UNL1        0.0585
     15 CL        142.4873  143.2955  170.3320 Cl      1  UNL1       -0.0822
     16 C         142.7288  140.7088  170.3034 C.ar    1  UNL1        0.0228
     17 C         142.4617  139.3863  169.6480 C.ar    1  UNL1        0.0585
     18 CL        142.9704  138.1221  170.2749 Cl      1  UNL1       -0.0822
     19 C         141.6858  139.3280  168.3656 C.ar    1  UNL1        0.0114
     20 S         141.1598  141.8364  162.1017 S.O2    1  UNL1        0.0638
     21 O         140.0951  142.3012  161.1528 O.2     1  UNL1       -0.1528
     22 O         142.2245  141.3717  163.0506 O.2     1  UNL1       -0.1528
     23 C         143.1469  136.3816  156.7348 C.3     1  UNL1        0.0436
     24 C         141.9166  137.1365  157.1432 C.3     1  UNL1        0.1336
     25 C         141.3550  136.3080  156.0259 C.3     1  UNL1        0.0436
     26 C         140.4914  137.6036  157.1635 C.3     1  UNL1        0.0448
     27 C         140.0550  138.6370  158.1593 C.3     1  UNL1        0.0330
     28 C         141.0438  139.2033  159.1347 C.ar    1  UNL1        0.0132
     29 C         140.6074  140.2367  160.1305 C.ar    1  UNL1        0.0186
     30 C         141.5962  140.8030  161.1059 C.ar    1  UNL1        0.1221
     31 C         143.0215  140.3359  161.0856 C.ar    1  UNL1        0.0230
     32 C         143.4579  139.3025  160.0898 C.ar    1  UNL1        0.0379
     33 C         142.4690  138.7362  159.1144 C.ar    1  UNL1        0.1342
     34 O         142.9055  137.7028  158.1186 O.3     1  UNL1       -0.4829
     35 C         141.7260  143.8227  163.6778 C.3     1  UNL1        0.1374
     36 C         142.6878  144.5396  162.7774 C.2     1  UNL1        0.0683
     37 O         142.3012  144.8491  161.3615 O.co2   1  UNL1       -0.5477
     38 O         144.0363  144.9471  163.2928 O.co2   1  UNL1       -0.5477
@<TRIPOS>UNITY_ATOM_ATTR
37 1
charge -1
@<TRIPOS>BOND
     1    23    24    1
     2    24    25    1
     3    24    26    1
     4    26    27    1
     5    27    28    1
     6    28    29   ar
     7    29    30   ar
     8    30    20    1
     9    20    21    2
    10    20    22    2
    11    20     1    1
    12     1    35    1
    13    35    36    1
    14    36    37   ar
    15    36    38   ar
    16     1     2    1
    17     2     6    1
    18     6     7   ar
    19     7     8   ar
    20     8     9   ar
    21     9    10   ar
    22    10    12    1
    23    12    13   ar
    24    13    14   ar
    25    14    15    1
    26    14    16   ar
    27    16    17   ar
    28    17    18    1
    29    17    19   ar
    30    10    11   ar
    31     2     3    1
    32     3     4    1
    33     4     5    1
    34    30    31   ar
    35    31    32   ar
    36    32    33   ar
    37    33    34    1
    38    34    24    1
    39    33    28   ar
    40     5     2    1
    41    11     6   ar
    42    19    12   ar
@<TRIPOS>MOLECULE
*****
 38 42 0 0 0
SMALL
GASTEIGER

@<TRIPOS>ATOM
      1 N         141.2050  144.0352  161.2433 N.3     1  UNL1       -0.1487
      2 C         141.5587  144.2844  162.6796 C.3     1  UNL1        0.0849
      3 C         142.8355  144.9446  162.2506 C.3     1  UNL1        0.0206
      4 C         143.1892  145.1937  163.6868 C.3     1  UNL1        0.0035
      5 C         141.9125  144.5336  164.1158 C.3     1  UNL1        0.0206
      6 C         140.2820  143.6243  163.1086 C.ar    1  UNL1       -0.0077
      7 C         138.9865  144.3766  163.0330 C.ar    1  UNL1       -0.0030
      8 C         137.7097  143.7164  163.4620 C.ar    1  UNL1       -0.0003
      9 C         137.7284  142.3040  163.9666 C.ar    1  UNL1       -0.0000
     10 C         139.0239  141.5517  164.0421 C.ar    1  UNL1       -0.0002
     11 C         140.3007  142.2118  163.6132 C.ar    1  UNL1       -0.0030
     12 C         139.0426  140.1391  164.5467 C.ar    1  UNL1        0.0017
     13 C         139.9998  139.1452  163.9586 C.ar    1  UNL1        0.0114
     14 C         140.0184  137.7328  164.4632 C.ar    1  UNL1        0.0585
     15 CL        140.9756  136.7388  163.8750 Cl      1  UNL1       -0.0822
     16 C         139.0800  137.3143  165.5559 C.ar    1  UNL1        0.0228
     17 C         138.1228  138.3082  166.1441 C.ar    1  UNL1        0.0585
     18 CL        137.1844  137.8897  167.2369 Cl      1  UNL1       -0.0822
     19 C         138.1042  139.7206  165.6395 C.ar    1  UNL1        0.0114
     20 S         141.5175  142.7105  160.6129 S.O2    1  UNL1        0.0638
     21 O         142.9687  142.8950  160.9446 O.2     1  UNL1       -0.1528
     22 O         140.0663  142.5260  160.2813 O.2     1  UNL1       -0.1528
     23 C         142.9128  135.7790  157.0753 C.3     1  UNL1        0.0436
     24 C         141.9527  136.9224  156.9308 C.3     1  UNL1        0.1336
     25 C         141.4714  136.0361  155.8204 C.3     1  UNL1        0.0436
     26 C         140.8255  137.7579  156.4007 C.3     1  UNL1        0.0448
     27 C         140.5130  139.0827  157.0311 C.3     1  UNL1        0.0330
     28 C         141.3277  139.5719  158.1916 C.ar    1  UNL1        0.0132
     29 C         141.0152  140.8966  158.8220 C.ar    1  UNL1        0.0186
     30 C         141.8300  141.3858  159.9825 C.ar    1  UNL1        0.1221
     31 C         142.9573  140.5502  160.5127 C.ar    1  UNL1        0.0230
     32 C         143.2698  139.2254  159.8823 C.ar    1  UNL1        0.0379
     33 C         142.4550  138.7363  158.7217 C.ar    1  UNL1        0.1342
     34 O         142.7675  137.4115  158.0913 O.3     1  UNL1       -0.4829
     35 C         140.5387  145.1107  160.4375 C.3     1  UNL1        0.1374
     36 C         140.8999  145.2988  158.9939 C.2     1  UNL1        0.0683
     37 O         142.2545  145.8248  158.6220 O.co2   1  UNL1       -0.5477
     38 O         139.9064  144.9609  157.9220 O.co2   1  UNL1       -0.5477
@<TRIPOS>UNITY_ATOM_ATTR
37 1
charge -1
@<TRIPOS>BOND
     1    23    24    1
     2    24    25    1
     3    24    26    1
     4    26    27    1
     5    27    28    1
     6    28    29   ar
     7    29    30   ar
     8    30    20    1
     9    20    21    2
    10    20    22    2
    11    20     1    1
    12     1    35    1
    13    35    36    1
    14    36    37   ar
    15    36    38   ar
    16     1     2    1
    17     2     6    1
    18     6     7   ar
    19     7     8   ar
    20     8     9   ar
    21     9    10   ar
    22    10    12    1
    23    12    13   ar
    24    13    14   ar
    25    14    15    1
    26    14    16   ar
    27    16    17   ar
    28    17    18    1
    29    17    19   ar
    30    10    11   ar
    31     2     3    1
    32     3     4    1
    33     4     5    1
    34    30    31   ar
    35    31    32   ar
    36    32    33   ar
    37    33    34    1
    38    34    24    1
    39    33    28   ar
    40     5     2    1
    41    11     6   ar
    42    19    12   ar
