@<TRIPOS>MOLECULE
*****
 31 34 0 0 0
SMALL
GASTEIGER

@<TRIPOS>ATOM
      1 C         141.4269  142.0986  166.2385 C.2     1  UNL1        0.0021
      2 C         140.9447  142.5289  167.5922 C.2     1  UNL1        0.0130
      3 C         141.2315  141.6802  168.7952 C.3     1  UNL1        0.1542
      4 C         140.4625  142.9592  168.9458 C.3     1  UNL1        0.0614
      5 C         139.9804  143.3894  170.2994 C.3     1  UNL1        0.0725
      6 N         140.2672  142.5407  171.5025 N.3     1  UNL1       -0.2972
      7 C         141.0362  141.2616  171.3519 C.3     1  UNL1        0.0725
      8 C         141.5184  140.8314  169.9983 C.3     1  UNL1        0.0614
      9 O         142.0006  140.4011  168.6446 O.3     1  UNL1       -0.4785
     10 C         142.4827  139.9709  167.2909 C.ar    1  UNL1        0.1388
     11 C         143.2518  138.6918  167.1403 C.ar    1  UNL1        0.0400
     12 C         143.7339  138.2615  165.7867 C.ar    1  UNL1        0.0397
     13 C         143.4471  139.1103  164.5836 C.ar    1  UNL1        0.1339
     14 O         143.9293  138.6801  163.2300 O.3     1  UNL1       -0.5055
     15 C         142.6781  140.3893  164.7342 C.ar    1  UNL1        0.0396
     16 C         142.1959  140.8196  166.0879 C.ar    1  UNL1        0.0368
     17 H         139.3656  142.2957  171.9117 H       1  UNL1        0.1233
     18 H         144.4097  137.8811  163.1359 H       1  UNL1        0.2922
     19 C         140.5664  144.6449  162.6294 C.ar    1  UNL1        0.0536
     20 C         141.8887  144.7574  163.3285 C.ar    1  UNL1        0.0045
     21 C         142.1755  143.9086  164.5316 C.ar    1  UNL1        0.0001
     22 C         141.1401  142.9474  165.0354 C.ar    1  UNL1       -0.0001
     23 C         139.8177  142.8349  164.3363 C.ar    1  UNL1        0.0001
     24 C         139.5309  143.6837  163.1332 C.ar    1  UNL1        0.0045
     25 N         140.6463  145.0026  160.0573 N.am    1  UNL1       -0.2761
     26 C         140.2796  145.4937  161.4263 C.2     1  UNL1        0.2490
     27 O         139.6260  146.8337  161.5924 O.2     1  UNL1       -0.2699
     28 C         141.3092  145.8520  157.6931 C.3     1  UNL1        0.0233
     29 C         140.3595  145.8514  158.8542 C.3     1  UNL1        0.0938
     30 C         141.2999  143.6627  159.8912 C.3     1  UNL1        0.0938
     31 C         140.4636  142.4505  159.6065 C.3     1  UNL1        0.0233
@<TRIPOS>BOND
     1    28    29    1
     2    29    25    1
     3    25    30    1
     4    30    31    1
     5    25    26   am
     6    26    27    2
     7    26    19    1
     8    19    20   ar
     9    20    21   ar
    10    21    22   ar
    11    22     1    1
    12     1     2    2
    13     2     3    1
    14     3     4    1
    15     4     5    1
    16     5     6    1
    17     6     7    1
    18     7     8    1
    19     3     9    1
    20     9    10    1
    21    10    11   ar
    22    11    12   ar
    23    12    13   ar
    24    13    14    1
    25    13    15   ar
    26    15    16   ar
    27    22    23   ar
    28    23    24   ar
    29    24    19   ar
    30    16     1    1
    31     8     3    1
    32    16    10   ar
    33     6    17    1
    34    14    18    1
@<TRIPOS>MOLECULE
*****
 31 34 0 0 0
SMALL
GASTEIGER

@<TRIPOS>ATOM
      1 C         139.8050  141.9307  165.7204 C.2     1  UNL1        0.0021
      2 C         140.1564  142.4655  167.0771 C.2     1  UNL1        0.0130
      3 C         140.1330  141.5571  168.2704 C.3     1  UNL1        0.1542
      4 C         140.5078  143.0003  168.4337 C.3     1  UNL1        0.0614
      5 C         140.8592  143.5350  169.7904 C.3     1  UNL1        0.0725
      6 N         140.8358  142.6265  170.9837 N.3     1  UNL1       -0.2972
      7 C         140.4611  141.1833  170.8205 C.3     1  UNL1        0.0725
      8 C         140.1097  140.6486  169.4638 C.3     1  UNL1        0.0614
      9 O         139.7583  140.1138  168.1071 O.3     1  UNL1       -0.4785
     10 C         139.4069  139.5791  166.7505 C.ar    1  UNL1        0.1388
     11 C         139.0321  138.1358  166.5871 C.ar    1  UNL1        0.0400
     12 C         138.6808  137.6010  165.2305 C.ar    1  UNL1        0.0397
     13 C         138.7041  138.5095  164.0371 C.ar    1  UNL1        0.1339
     14 O         138.3527  137.9748  162.6805 O.3     1  UNL1       -0.5055
     15 C         139.0788  139.9527  164.2004 C.ar    1  UNL1        0.0396
     16 C         139.4302  140.4875  165.5571 C.ar    1  UNL1        0.0368
     17 H         140.1742  143.0293  171.6475 H       1  UNL1        0.1233
     18 H         138.1186  137.0732  162.5785 H       1  UNL1        0.2922
     19 C         139.8750  144.6561  162.1402 C.ar    1  UNL1        0.0536
     20 C         138.5650  144.1856  162.6991 C.ar    1  UNL1        0.0045
     21 C         138.5416  143.2771  163.8925 C.ar    1  UNL1        0.0001
     22 C         139.8283  142.8392  164.5270 C.ar    1  UNL1       -0.0001
     23 C         141.1384  143.3097  163.9681 C.ar    1  UNL1        0.0001
     24 C         141.1618  144.2182  162.7747 C.ar    1  UNL1        0.0045
     25 N         140.3547  145.0435  159.6164 N.am    1  UNL1       -0.2761
     26 C         139.8983  145.5646  160.9469 C.2     1  UNL1        0.2490
     27 O         139.4652  146.9942  161.0840 O.2     1  UNL1       -0.2699
     28 C         141.5186  145.8842  157.4510 C.3     1  UNL1        0.0233
     29 C         140.3781  145.9520  158.4230 C.3     1  UNL1        0.0938
     30 C         140.7878  143.6139  159.4793 C.3     1  UNL1        0.0938
     31 C         139.7942  142.5644  159.0778 C.3     1  UNL1        0.0233
@<TRIPOS>BOND
     1    28    29    1
     2    29    25    1
     3    25    30    1
     4    30    31    1
     5    25    26   am
     6    26    27    2
     7    26    19    1
     8    19    20   ar
     9    20    21   ar
    10    21    22   ar
    11    22     1    1
    12     1     2    2
    13     2     3    1
    14     3     4    1
    15     4     5    1
    16     5     6    1
    17     6     7    1
    18     7     8    1
    19     3     9    1
    20     9    10    1
    21    10    11   ar
    22    11    12   ar
    23    12    13   ar
    24    13    14    1
    25    13    15   ar
    26    15    16   ar
    27    22    23   ar
    28    23    24   ar
    29    24    19   ar
    30    16     1    1
    31     8     3    1
    32    16    10   ar
    33     6    17    1
    34    14    18    1
@<TRIPOS>MOLECULE
*****
 31 34 0 0 0
SMALL
GASTEIGER

@<TRIPOS>ATOM
      1 C         141.4080  141.9382  162.3463 C.2     1  UNL1        0.0021
      2 C         141.8943  140.6555  161.7392 C.2     1  UNL1        0.0130
      3 C         142.1103  140.5614  160.2579 C.3     1  UNL1        0.1542
      4 C         142.3805  139.3730  161.1322 C.3     1  UNL1        0.0614
      5 C         142.8668  138.0904  160.5252 C.3     1  UNL1        0.0725
      6 N         143.0827  137.9962  159.0438 N.3     1  UNL1       -0.2972
      7 C         142.8124  139.1847  158.1695 C.3     1  UNL1        0.0725
      8 C         142.3262  140.4672  158.7765 C.3     1  UNL1        0.0614
      9 O         141.8399  141.7499  159.3835 O.3     1  UNL1       -0.4785
     10 C         141.3537  143.0325  159.9905 C.ar    1  UNL1        0.1388
     11 C         141.0834  144.2210  159.1161 C.ar    1  UNL1        0.0400
     12 C         140.5972  145.5036  159.7232 C.ar    1  UNL1        0.0397
     13 C         140.3812  145.5977  161.2045 C.ar    1  UNL1        0.1339
     14 O         139.8950  146.8803  161.8116 O.3     1  UNL1       -0.5055
     15 C         140.6515  144.4093  162.0789 C.ar    1  UNL1        0.0396
     16 C         141.1377  143.1266  161.4719 C.ar    1  UNL1        0.0368
     17 H         142.4860  137.2408  158.7067 H       1  UNL1        0.1233
     18 H         139.7261  147.6227  161.2654 H       1  UNL1        0.2922
     19 C         140.7601  142.2207  166.7904 C.ar    1  UNL1        0.0536
     20 C         139.6195  141.8538  165.8880 C.ar    1  UNL1        0.0045
     21 C         139.8355  141.7596  164.4066 C.ar    1  UNL1        0.0001
     22 C         141.1921  142.0324  163.8276 C.ar    1  UNL1       -0.0001
     23 C         142.3328  142.3993  164.7300 C.ar    1  UNL1        0.0001
     24 C         142.1168  142.4935  166.2114 C.ar    1  UNL1        0.0045
     25 N         140.7474  141.1070  169.1376 N.am    1  UNL1       -0.2761
     26 C         140.5442  142.3148  168.2718 C.2     1  UNL1        0.2490
     27 O         140.1249  143.6170  168.8873 O.2     1  UNL1       -0.2699
     28 C         141.6326  141.7000  171.5072 C.3     1  UNL1        0.0233
     29 C         140.5315  141.2011  170.6190 C.3     1  UNL1        0.0938
     30 C         141.1667  139.8049  168.5221 C.3     1  UNL1        0.0938
     31 C         142.6214  139.4491  168.4378 C.3     1  UNL1        0.0233
@<TRIPOS>BOND
     1    28    29    1
     2    29    25    1
     3    25    30    1
     4    30    31    1
     5    25    26   am
     6    26    27    2
     7    26    19    1
     8    19    20   ar
     9    20    21   ar
    10    21    22   ar
    11    22     1    1
    12     1     2    2
    13     2     3    1
    14     3     4    1
    15     4     5    1
    16     5     6    1
    17     6     7    1
    18     7     8    1
    19     3     9    1
    20     9    10    1
    21    10    11   ar
    22    11    12   ar
    23    12    13   ar
    24    13    14    1
    25    13    15   ar
    26    15    16   ar
    27    22    23   ar
    28    23    24   ar
    29    24    19   ar
    30    16     1    1
    31     8     3    1
    32    16    10   ar
    33     6    17    1
    34    14    18    1
@<TRIPOS>MOLECULE
*****
 31 34 0 0 0
SMALL
GASTEIGER

@<TRIPOS>ATOM
      1 C         140.5413  140.7471  163.3077 C.2     1  UNL1        0.0021
      2 C         141.4085  139.9338  164.2225 C.2     1  UNL1        0.0130
      3 C         141.6043  140.3614  165.6469 C.3     1  UNL1        0.1542
      4 C         142.2756  139.1206  165.1372 C.3     1  UNL1        0.0614
      5 C         143.1428  138.3074  166.0519 C.3     1  UNL1        0.0725
      6 N         143.3385  138.7350  167.4763 N.3     1  UNL1       -0.2972
      7 C         142.6672  139.9757  167.9860 C.3     1  UNL1        0.0725
      8 C         141.8001  140.7889  167.0713 C.3     1  UNL1        0.0614
      9 O         140.9329  141.6022  166.1565 O.3     1  UNL1       -0.4785
     10 C         140.0658  142.4154  165.2418 C.ar    1  UNL1        0.1388
     11 C         139.3944  143.6562  165.7515 C.ar    1  UNL1        0.0400
     12 C         138.5273  144.4694  164.8368 C.ar    1  UNL1        0.0397
     13 C         138.3315  144.0419  163.4124 C.ar    1  UNL1        0.1339
     14 O         137.4644  144.8551  162.4976 O.3     1  UNL1       -0.5055
     15 C         139.0028  142.8011  162.9027 C.ar    1  UNL1        0.0396
     16 C         139.8700  141.9879  163.8174 C.ar    1  UNL1        0.0368
     17 H         144.3412  138.8671  167.6089 H       1  UNL1        0.1233
     18 H         137.0450  145.6302  162.8160 H       1  UNL1        0.2922
     19 C         139.9540  139.4645  159.0346 C.ar    1  UNL1        0.0536
     20 C         139.2196  138.7603  160.1367 C.ar    1  UNL1        0.0045
     21 C         139.4154  139.1878  161.5611 C.ar    1  UNL1        0.0001
     22 C         140.3455  140.3196  161.8834 C.ar    1  UNL1       -0.0001
     23 C         141.0800  141.0239  160.7812 C.ar    1  UNL1        0.0001
     24 C         140.8842  140.5963  159.3568 C.ar    1  UNL1        0.0045
     25 N         140.7812  138.1681  156.9406 N.am    1  UNL1       -0.2761
     26 C         139.7582  139.0370  157.6102 C.2     1  UNL1        0.2490
     27 O         138.5393  139.4784  156.8554 O.2     1  UNL1       -0.2699
     28 C         139.6571  136.6071  155.1942 C.3     1  UNL1        0.0233
     29 C         140.5854  137.7405  155.5162 C.3     1  UNL1        0.0938
     30 C         142.0000  137.7266  157.6954 C.3     1  UNL1        0.0938
     31 C         142.8350  136.5942  157.1753 C.3     1  UNL1        0.0233
@<TRIPOS>BOND
     1    28    29    1
     2    29    25    1
     3    25    30    1
     4    30    31    1
     5    25    26   am
     6    26    27    2
     7    26    19    1
     8    19    20   ar
     9    20    21   ar
    10    21    22   ar
    11    22     1    1
    12     1     2    2
    13     2     3    1
    14     3     4    1
    15     4     5    1
    16     5     6    1
    17     6     7    1
    18     7     8    1
    19     3     9    1
    20     9    10    1
    21    10    11   ar
    22    11    12   ar
    23    12    13   ar
    24    13    14    1
    25    13    15   ar
    26    15    16   ar
    27    22    23   ar
    28    23    24   ar
    29    24    19   ar
    30    16     1    1
    31     8     3    1
    32    16    10   ar
    33     6    17    1
    34    14    18    1
@<TRIPOS>MOLECULE
*****
 31 34 0 0 0
SMALL
GASTEIGER

@<TRIPOS>ATOM
      1 C         141.9653  142.1284  162.5601 C.2     1  UNL1        0.0021
      2 C         141.2754  143.3790  162.1016 C.2     1  UNL1        0.0130
      3 C         141.1993  143.7001  160.6384 C.3     1  UNL1        0.1542
      4 C         140.5856  144.6295  161.6431 C.3     1  UNL1        0.0614
      5 C         139.8957  145.8800  161.1846 C.3     1  UNL1        0.0725
      6 N         139.8196  146.2012  159.7214 N.3     1  UNL1       -0.2972
      7 C         140.4333  145.2718  158.7167 C.3     1  UNL1        0.0725
      8 C         141.1231  144.0213  159.1751 C.3     1  UNL1        0.0614
      9 O         141.8130  142.7707  159.6336 O.3     1  UNL1       -0.4785
     10 C         142.5029  141.5202  160.0921 C.ar    1  UNL1        0.1388
     11 C         143.1166  140.5907  159.0873 C.ar    1  UNL1        0.0400
     12 C         143.8065  139.3402  159.5458 C.ar    1  UNL1        0.0397
     13 C         143.8826  139.0190  161.0090 C.ar    1  UNL1        0.1339
     14 O         144.5725  137.7685  161.4675 O.3     1  UNL1       -0.5055
     15 C         143.2689  139.9484  162.0138 C.ar    1  UNL1        0.0396
     16 C         142.5790  141.1990  161.5553 C.ar    1  UNL1        0.0368
     17 H         140.2679  147.1087  159.5954 H       1  UNL1        0.1233
     18 H         144.9558  137.1879  160.8399 H       1  UNL1        0.2922
     19 C         142.1938  141.1650  166.9498 C.ar    1  UNL1        0.0536
     20 C         141.0905  140.5897  166.1121 C.ar    1  UNL1        0.0045
     21 C         141.0144  140.9108  164.6489 C.ar    1  UNL1        0.0001
     22 C         142.0415  141.8073  164.0233 C.ar    1  UNL1       -0.0001
     23 C         143.1448  142.3827  164.8610 C.ar    1  UNL1        0.0001
     24 C         143.2210  142.0615  166.3243 C.ar    1  UNL1        0.0045
     25 N         141.5895  141.7319  169.4122 N.am    1  UNL1       -0.2761
     26 C         142.2699  140.8439  168.4130 C.2     1  UNL1        0.2490
     27 O         143.0265  139.6346  168.8771 O.2     1  UNL1       -0.2699
     28 C         140.7226  140.4093  171.4736 C.3     1  UNL1        0.0233
     29 C         141.6657  141.4108  170.8754 C.3     1  UNL1        0.0938
     30 C         140.8329  142.9412  168.9481 C.3     1  UNL1        0.0938
     31 C         140.4003  143.9810  169.9388 C.3     1  UNL1        0.0233
@<TRIPOS>BOND
     1    28    29    1
     2    29    25    1
     3    25    30    1
     4    30    31    1
     5    25    26   am
     6    26    27    2
     7    26    19    1
     8    19    20   ar
     9    20    21   ar
    10    21    22   ar
    11    22     1    1
    12     1     2    2
    13     2     3    1
    14     3     4    1
    15     4     5    1
    16     5     6    1
    17     6     7    1
    18     7     8    1
    19     3     9    1
    20     9    10    1
    21    10    11   ar
    22    11    12   ar
    23    12    13   ar
    24    13    14    1
    25    13    15   ar
    26    15    16   ar
    27    22    23   ar
    28    23    24   ar
    29    24    19   ar
    30    16     1    1
    31     8     3    1
    32    16    10   ar
    33     6    17    1
    34    14    18    1
@<TRIPOS>MOLECULE
*****
 31 34 0 0 0
SMALL
GASTEIGER

@<TRIPOS>ATOM
      1 C         141.5031  141.1861  166.3200 C.2     1  UNL1        0.0021
      2 C         141.9953  141.7754  167.6086 C.2     1  UNL1        0.0130
      3 C         141.3034  141.4439  168.8975 C.3     1  UNL1        0.1542
      4 C         142.4875  142.3647  168.8973 C.3     1  UNL1        0.0614
      5 C         142.9796  142.9539  170.1859 C.3     1  UNL1        0.0725
      6 N         142.2876  142.6224  171.4748 N.3     1  UNL1       -0.2972
      7 C         141.1035  141.7016  171.4751 C.3     1  UNL1        0.0725
      8 C         140.6114  141.1124  170.1864 C.3     1  UNL1        0.0614
      9 O         140.1192  140.5231  168.8978 O.3     1  UNL1       -0.4785
     10 C         139.6271  139.9339  167.6092 C.ar    1  UNL1        0.1388
     11 C         138.4429  139.0130  167.6094 C.ar    1  UNL1        0.0400
     12 C         137.9508  138.4238  166.3208 C.ar    1  UNL1        0.0397
     13 C         138.6427  138.7553  165.0319 C.ar    1  UNL1        0.1339
     14 O         138.1506  138.1661  163.7433 O.3     1  UNL1       -0.5055
     15 C         139.8269  139.6761  165.0316 C.ar    1  UNL1        0.0396
     16 C         140.3190  140.2654  166.3203 C.ar    1  UNL1        0.0368
     17 H         141.9736  143.5060  171.8761 H       1  UNL1        0.1233
     18 H         137.4109  137.5909  163.7435 H       1  UNL1        0.2922
     19 C         143.5791  142.1807  162.4533 C.ar    1  UNL1        0.0536
     20 C         144.1717  141.1634  163.3826 C.ar    1  UNL1        0.0045
     21 C         143.4798  140.8319  164.6715 C.ar    1  UNL1        0.0001
     22 C         142.1951  141.5177  165.0311 C.ar    1  UNL1       -0.0001
     23 C         141.6024  142.5350  164.1017 C.ar    1  UNL1        0.0001
     24 C         142.2943  142.8666  162.8128 C.ar    1  UNL1        0.0045
     25 N         144.0311  141.6706  159.9462 N.am    1  UNL1       -0.2761
     26 C         144.2710  142.5122  161.1644 C.2     1  UNL1        0.2490
     27 O         145.2030  143.6855  161.0937 O.2     1  UNL1       -0.2699
     28 C         144.0218  142.8291  157.6208 C.3     1  UNL1        0.0233
     29 C         144.7230  142.0021  158.6573 C.3     1  UNL1        0.0938
     30 C         143.0991  140.4973  160.0169 C.3     1  UNL1        0.0938
     31 C         143.6433  139.1206  160.2587 C.3     1  UNL1        0.0233
@<TRIPOS>BOND
     1    28    29    1
     2    29    25    1
     3    25    30    1
     4    30    31    1
     5    25    26   am
     6    26    27    2
     7    26    19    1
     8    19    20   ar
     9    20    21   ar
    10    21    22   ar
    11    22     1    1
    12     1     2    2
    13     2     3    1
    14     3     4    1
    15     4     5    1
    16     5     6    1
    17     6     7    1
    18     7     8    1
    19     3     9    1
    20     9    10    1
    21    10    11   ar
    22    11    12   ar
    23    12    13   ar
    24    13    14    1
    25    13    15   ar
    26    15    16   ar
    27    22    23   ar
    28    23    24   ar
    29    24    19   ar
    30    16     1    1
    31     8     3    1
    32    16    10   ar
    33     6    17    1
    34    14    18    1
@<TRIPOS>MOLECULE
*****
 31 34 0 0 0
SMALL
GASTEIGER

@<TRIPOS>ATOM
      1 C         140.4583  140.7811  162.9933 C.2     1  UNL1        0.0021
      2 C         139.9250  139.5675  163.6953 C.2     1  UNL1        0.0130
      3 C         139.0900  139.7227  164.9317 C.3     1  UNL1        0.1542
      4 C         139.3917  138.3540  164.3974 C.3     1  UNL1        0.0614
      5 C         138.8584  137.1404  165.0994 C.3     1  UNL1        0.0725
      6 N         138.0234  137.2956  166.3358 N.3     1  UNL1       -0.2972
      7 C         137.7217  138.6643  166.8701 C.3     1  UNL1        0.0725
      8 C         138.2550  139.8778  166.1681 C.3     1  UNL1        0.0614
      9 O         138.7883  141.0915  165.4660 O.3     1  UNL1       -0.4785
     10 C         139.3216  142.3050  164.7640 C.ar    1  UNL1        0.1388
     11 C         139.0199  143.6738  165.2983 C.ar    1  UNL1        0.0400
     12 C         139.5532  144.8873  164.5963 C.ar    1  UNL1        0.0397
     13 C         140.3882  144.7321  163.3599 C.ar    1  UNL1        0.1339
     14 O         140.9215  145.9456  162.6579 O.3     1  UNL1       -0.5055
     15 C         140.6899  143.3634  162.8256 C.ar    1  UNL1        0.0396
     16 C         140.1566  142.1498  163.5276 C.ar    1  UNL1        0.0368
     17 H         138.5019  136.7879  167.0799 H       1  UNL1        0.1233
     18 H         140.7330  146.8006  162.9916 H       1  UNL1        0.2922
     19 C         142.9633  140.3156  159.2841 C.ar    1  UNL1        0.0536
     20 C         143.6066  140.2446  160.6373 C.ar    1  UNL1        0.0045
     21 C         142.7715  140.3998  161.8737 C.ar    1  UNL1        0.0001
     22 C         141.2933  140.6259  161.7569 C.ar    1  UNL1       -0.0001
     23 C         140.6500  140.6969  160.4036 C.ar    1  UNL1        0.0001
     24 C         141.4850  140.5417  159.1672 C.ar    1  UNL1        0.0045
     25 N         144.5749  141.3282  157.5157 N.am    1  UNL1       -0.2761
     26 C         143.7984  140.1604  158.0477 C.2     1  UNL1        0.2490
     27 O         143.8568  138.8373  157.3433 O.2     1  UNL1       -0.2699
     28 C         146.2573  142.3136  155.7985 C.3     1  UNL1        0.0233
     29 C         145.4099  141.1730  156.2793 C.3     1  UNL1        0.0938
     30 C         144.5165  142.6513  158.2200 C.3     1  UNL1        0.0938
     31 C         143.3427  143.5614  158.0104 C.3     1  UNL1        0.0233
@<TRIPOS>BOND
     1    28    29    1
     2    29    25    1
     3    25    30    1
     4    30    31    1
     5    25    26   am
     6    26    27    2
     7    26    19    1
     8    19    20   ar
     9    20    21   ar
    10    21    22   ar
    11    22     1    1
    12     1     2    2
    13     2     3    1
    14     3     4    1
    15     4     5    1
    16     5     6    1
    17     6     7    1
    18     7     8    1
    19     3     9    1
    20     9    10    1
    21    10    11   ar
    22    11    12   ar
    23    12    13   ar
    24    13    14    1
    25    13    15   ar
    26    15    16   ar
    27    22    23   ar
    28    23    24   ar
    29    24    19   ar
    30    16     1    1
    31     8     3    1
    32    16    10   ar
    33     6    17    1
    34    14    18    1
@<TRIPOS>MOLECULE
*****
 31 34 0 0 0
SMALL
GASTEIGER

@<TRIPOS>ATOM
      1 C         140.6416  141.4165  163.9993 C.2     1  UNL1        0.0021
      2 C         139.9100  140.7665  165.1361 C.2     1  UNL1        0.0130
      3 C         140.4742  140.8290  166.5245 C.3     1  UNL1        0.1542
      4 C         139.1785  140.1165  166.2729 C.3     1  UNL1        0.0614
      5 C         138.4469  139.4666  167.4097 C.3     1  UNL1        0.0725
      6 N         139.0111  139.5291  168.7981 N.3     1  UNL1       -0.2972
      7 C         140.3068  140.2416  169.0498 C.3     1  UNL1        0.0725
      8 C         141.0384  140.8916  167.9130 C.3     1  UNL1        0.0614
      9 O         141.7700  141.5416  166.7761 O.3     1  UNL1       -0.4785
     10 C         142.5015  142.1916  165.6393 C.ar    1  UNL1        0.1388
     11 C         143.7973  142.9041  165.8910 C.ar    1  UNL1        0.0400
     12 C         144.5288  143.5541  164.7542 C.ar    1  UNL1        0.0397
     13 C         143.9646  143.4916  163.3657 C.ar    1  UNL1        0.1339
     14 O         144.6962  144.1415  162.2289 O.3     1  UNL1       -0.5055
     15 C         142.6689  142.7791  163.1141 C.ar    1  UNL1        0.0396
     16 C         141.9373  142.1290  164.2509 C.ar    1  UNL1        0.0368
     17 H         139.1400  138.5657  169.1073 H       1  UNL1        0.1233
     18 H         145.5056  144.5866  162.3861 H       1  UNL1        0.2922
     19 C         138.9490  141.2289  159.8339 C.ar    1  UNL1        0.0536
     20 C         139.9685  140.2210  160.2753 C.ar    1  UNL1        0.0045
     21 C         140.5327  140.2836  161.6638 C.ar    1  UNL1        0.0001
     22 C         140.0774  141.3540  162.6108 C.ar    1  UNL1       -0.0001
     23 C         139.0579  142.3619  162.1694 C.ar    1  UNL1        0.0001
     24 C         138.4937  142.2994  160.7810 C.ar    1  UNL1        0.0045
     25 N         139.0033  141.9796  157.3473 N.am    1  UNL1       -0.2761
     26 C         138.3848  141.1663  158.4455 C.2     1  UNL1        0.2490
     27 O         137.2021  140.2905  158.1553 O.2     1  UNL1       -0.2699
     28 C         137.3243  142.8382  155.5601 C.3     1  UNL1        0.0233
     29 C         138.4391  141.9170  155.9588 C.3     1  UNL1        0.0938
     30 C         140.1860  142.8555  157.6375 C.3     1  UNL1        0.0938
     31 C         139.9859  144.3127  157.9313 C.3     1  UNL1        0.0233
@<TRIPOS>BOND
     1    28    29    1
     2    29    25    1
     3    25    30    1
     4    30    31    1
     5    25    26   am
     6    26    27    2
     7    26    19    1
     8    19    20   ar
     9    20    21   ar
    10    21    22   ar
    11    22     1    1
    12     1     2    2
    13     2     3    1
    14     3     4    1
    15     4     5    1
    16     5     6    1
    17     6     7    1
    18     7     8    1
    19     3     9    1
    20     9    10    1
    21    10    11   ar
    22    11    12   ar
    23    12    13   ar
    24    13    14    1
    25    13    15   ar
    26    15    16   ar
    27    22    23   ar
    28    23    24   ar
    29    24    19   ar
    30    16     1    1
    31     8     3    1
    32    16    10   ar
    33     6    17    1
    34    14    18    1
@<TRIPOS>MOLECULE
*****
 31 34 0 0 0
SMALL
GASTEIGER

@<TRIPOS>ATOM
      1 C         140.5463  140.7036  163.3964 C.2     1  UNL1        0.0021
      2 C         141.4021  139.9126  164.3409 C.2     1  UNL1        0.0130
      3 C         141.5933  140.3827  165.7525 C.3     1  UNL1        0.1542
      4 C         142.2578  139.1216  165.2854 C.3     1  UNL1        0.0614
      5 C         143.1136  138.3307  166.2299 C.3     1  UNL1        0.0725
      6 N         143.3048  138.8008  167.6414 N.3     1  UNL1       -0.2972
      7 C         142.6403  140.0618  168.1085 C.3     1  UNL1        0.0725
      8 C         141.7845  140.8527  167.1640 C.3     1  UNL1        0.0614
      9 O         140.9288  141.6438  166.2195 O.3     1  UNL1       -0.4785
     10 C         140.0730  142.4347  165.2750 C.ar    1  UNL1        0.1388
     11 C         139.4085  143.6958  165.7421 C.ar    1  UNL1        0.0400
     12 C         138.5527  144.4868  164.7976 C.ar    1  UNL1        0.0397
     13 C         138.3615  144.0167  163.3861 C.ar    1  UNL1        0.1339
     14 O         137.5058  144.8076  162.4416 O.3     1  UNL1       -0.5055
     15 C         139.0260  142.7557  162.9190 C.ar    1  UNL1        0.0396
     16 C         139.8818  141.9646  163.8635 C.ar    1  UNL1        0.0368
     17 H         144.3077  138.9293  167.7756 H       1  UNL1        0.1233
     18 H         137.0907  145.5954  162.7334 H       1  UNL1        0.2922
     19 C         139.9726  139.2934  159.1618 C.ar    1  UNL1        0.0536
     20 C         141.0795  140.2509  159.4899 C.ar    1  UNL1        0.0045
     21 C         141.2708  140.7210  160.9015 C.ar    1  UNL1        0.0001
     22 C         140.3551  140.2335  161.9849 C.ar    1  UNL1       -0.0001
     23 C         139.2481  139.2759  161.6568 C.ar    1  UNL1        0.0001
     24 C         139.0568  138.8058  160.2452 C.ar    1  UNL1        0.0045
     25 N         138.8952  139.5935  156.8168 N.am    1  UNL1       -0.2761
     26 C         139.7814  138.8233  157.7502 C.2     1  UNL1        0.2490
     27 O         140.4764  137.5829  157.2722 O.2     1  UNL1       -0.2699
     28 C         139.5764  139.6626  154.3105 C.3     1  UNL1        0.0233
     29 C         138.7040  139.1235  155.4053 C.3     1  UNL1        0.0938
     30 C         138.2002  140.8339  157.2949 C.3     1  UNL1        0.0938
     31 C         136.8676  141.2153  156.7215 C.3     1  UNL1        0.0233
@<TRIPOS>BOND
     1    28    29    1
     2    29    25    1
     3    25    30    1
     4    30    31    1
     5    25    26   am
     6    26    27    2
     7    26    19    1
     8    19    20   ar
     9    20    21   ar
    10    21    22   ar
    11    22     1    1
    12     1     2    2
    13     2     3    1
    14     3     4    1
    15     4     5    1
    16     5     6    1
    17     6     7    1
    18     7     8    1
    19     3     9    1
    20     9    10    1
    21    10    11   ar
    22    11    12   ar
    23    12    13   ar
    24    13    14    1
    25    13    15   ar
    26    15    16   ar
    27    22    23   ar
    28    23    24   ar
    29    24    19   ar
    30    16     1    1
    31     8     3    1
    32    16    10   ar
    33     6    17    1
    34    14    18    1
