@<TRIPOS>MOLECULE
*****
 20 21 0 0 0
SMALL
GASTEIGER

@<TRIPOS>ATOM
      1 N         138.6842  139.5488  164.4550 N.3     1  UNL1       -0.2727
      2 C         139.5349  140.7075  164.8837 C.3     1  UNL1        0.0721
      3 C         139.8088  140.9385  166.3403 C.3     1  UNL1        0.0177
      4 C         139.2320  140.0108  167.3682 C.3     1  UNL1        0.0071
      5 C         138.3813  138.8521  166.9395 C.3     1  UNL1        0.0177
      6 C         138.1075  138.6211  165.4829 C.3     1  UNL1        0.0721
      7 C         138.4103  139.3178  162.9984 C.3     1  UNL1        0.0721
      8 C         139.1175  138.2150  162.2680 C.3     1  UNL1        0.0173
      9 C         140.5978  138.0360  162.4311 C.3     1  UNL1        0.0014
     10 C         141.1285  137.0373  163.4165 C.3     1  UNL1        0.0000
     11 C         141.4803  137.4713  164.8086 C.3     1  UNL1        0.0000
     12 C         143.2626  138.5766  166.3421 C.3     1  UNL1        0.0000
     13 C         142.5478  138.5025  165.0255 C.3     1  UNL1        0.0000
     14 C         139.5059  140.2418  168.8248 C.3     1  UNL1        0.0264
     15 C         140.6764  141.0808  169.2440 C.ar    1  UNL1       -0.0222
     16 C         140.4750  142.5232  169.6031 C.ar    1  UNL1       -0.0043
     17 C         141.6455  143.3623  170.0223 C.ar    1  UNL1       -0.0003
     18 C         143.0175  142.7590  170.0824 C.ar    1  UNL1       -0.0000
     19 C         143.2190  141.3167  169.7233 C.ar    1  UNL1       -0.0003
     20 C         142.0484  140.4775  169.3041 C.ar    1  UNL1       -0.0043
@<TRIPOS>BOND
     1    12    13    1
     2    13    11    1
     3    11    10    1
     4    10     9    1
     5     9     8    1
     6     8     7    1
     7     7     1    1
     8     1     2    1
     9     2     3    1
    10     3     4    1
    11     4    14    1
    12    14    15    1
    13    15    16   ar
    14    16    17   ar
    15    17    18   ar
    16    18    19   ar
    17    19    20   ar
    18     4     5    1
    19     5     6    1
    20     6     1    1
    21    20    15   ar
@<TRIPOS>MOLECULE
*****
 20 21 0 0 0
SMALL
GASTEIGER

@<TRIPOS>ATOM
      1 N         139.8717  140.2665  167.3451 N.3     1  UNL1       -0.2727
      2 C         139.8374  141.3017  166.2601 C.3     1  UNL1        0.0721
      3 C         141.0658  142.1052  165.9511 C.3     1  UNL1        0.0177
      4 C         142.3284  141.8735  166.7269 C.3     1  UNL1        0.0071
      5 C         142.3627  140.8383  167.8119 C.3     1  UNL1        0.0177
      6 C         141.1343  140.0348  168.1209 C.3     1  UNL1        0.0721
      7 C         138.6433  139.4630  167.6541 C.3     1  UNL1        0.0721
      8 C         137.9048  138.7671  166.5495 C.3     1  UNL1        0.0173
      9 C         138.5528  137.6326  165.8126 C.3     1  UNL1        0.0014
     10 C         139.4600  137.9134  164.6514 C.3     1  UNL1        0.0000
     11 C         140.9218  137.5911  164.7468 C.3     1  UNL1        0.0000
     12 C         143.2839  138.5188  165.3034 C.3     1  UNL1        0.0000
     13 C         141.9392  138.6900  164.6612 C.3     1  UNL1        0.0000
     14 C         143.5568  142.6770  166.4179 C.3     1  UNL1        0.0264
     15 C         143.9498  142.9280  164.9922 C.ar    1  UNL1       -0.0222
     16 C         144.6859  141.8732  164.2203 C.ar    1  UNL1       -0.0043
     17 C         145.0789  142.1242  162.7947 C.ar    1  UNL1       -0.0003
     18 C         144.7358  143.4299  162.1409 C.ar    1  UNL1       -0.0000
     19 C         143.9998  144.4846  162.9127 C.ar    1  UNL1       -0.0003
     20 C         143.6068  144.2337  164.3384 C.ar    1  UNL1       -0.0043
@<TRIPOS>BOND
     1    12    13    1
     2    13    11    1
     3    11    10    1
     4    10     9    1
     5     9     8    1
     6     8     7    1
     7     7     1    1
     8     1     2    1
     9     2     3    1
    10     3     4    1
    11     4    14    1
    12    14    15    1
    13    15    16   ar
    14    16    17   ar
    15    17    18   ar
    16    18    19   ar
    17    19    20   ar
    18     4     5    1
    19     5     6    1
    20     6     1    1
    21    20    15   ar
@<TRIPOS>MOLECULE
*****
 20 21 0 0 0
SMALL
GASTEIGER

@<TRIPOS>ATOM
      1 N         141.3225  139.9779  163.6989 N.3     1  UNL1       -0.2727
      2 C         140.8841  141.3879  163.9628 C.3     1  UNL1        0.0721
      3 C         141.4154  142.1279  165.1545 C.3     1  UNL1        0.0177
      4 C         142.3850  141.4579  166.0823 C.3     1  UNL1        0.0071
      5 C         142.8233  140.0479  165.8185 C.3     1  UNL1        0.0177
      6 C         142.2921  139.3079  164.6268 C.3     1  UNL1        0.0721
      7 C         140.7913  139.2378  162.5073 C.3     1  UNL1        0.0721
      8 C         140.2395  137.8525  162.6695 C.3     1  UNL1        0.0173
      9 C         138.9444  137.6414  163.3963 C.3     1  UNL1        0.0014
     10 C         138.9021  137.7258  164.8934 C.3     1  UNL1        0.0000
     11 C         138.4454  138.9892  165.5607 C.3     1  UNL1        0.0000
     12 C         139.3581  139.8533  167.8345 C.3     1  UNL1        0.0000
     13 C         138.3534  139.0564  167.0563 C.3     1  UNL1        0.0000
     14 C         142.9162  142.1980  167.2740 C.3     1  UNL1        0.0264
     15 C         142.1955  142.1208  168.5873 C.ar    1  UNL1       -0.0222
     16 C         140.9801  142.9667  168.8267 C.ar    1  UNL1       -0.0043
     17 C         140.2595  142.8895  170.1400 C.ar    1  UNL1       -0.0003
     18 C         140.7541  141.9664  171.2138 C.ar    1  UNL1       -0.0000
     19 C         141.9694  141.1204  170.9744 C.ar    1  UNL1       -0.0003
     20 C         142.6902  141.1976  169.6611 C.ar    1  UNL1       -0.0043
@<TRIPOS>BOND
     1    12    13    1
     2    13    11    1
     3    11    10    1
     4    10     9    1
     5     9     8    1
     6     8     7    1
     7     7     1    1
     8     1     2    1
     9     2     3    1
    10     3     4    1
    11     4    14    1
    12    14    15    1
    13    15    16   ar
    14    16    17   ar
    15    17    18   ar
    16    18    19   ar
    17    19    20   ar
    18     4     5    1
    19     5     6    1
    20     6     1    1
    21    20    15   ar
@<TRIPOS>MOLECULE
*****
 20 21 0 0 0
SMALL
GASTEIGER

@<TRIPOS>ATOM
      1 N         138.9789  139.6919  164.1397 N.3     1  UNL1       -0.2727
      2 C         138.3139  139.4050  165.4532 C.3     1  UNL1        0.0721
      3 C         139.1186  139.4136  166.7190 C.3     1  UNL1        0.0177
      4 C         140.5884  139.7090  166.6713 C.3     1  UNL1        0.0071
      5 C         141.2535  139.9958  165.3578 C.3     1  UNL1        0.0177
      6 C         140.4488  139.9873  164.0920 C.3     1  UNL1        0.0721
      7 C         138.1742  139.6833  162.8739 C.3     1  UNL1        0.0721
      8 C         137.6365  140.9687  162.3183 C.3     1  UNL1        0.0173
      9 C         137.2843  142.0962  163.2427 C.3     1  UNL1        0.0014
     10 C         138.1035  143.3528  163.2391 C.3     1  UNL1        0.0000
     11 C         137.9151  144.3740  164.3216 C.3     1  UNL1        0.0000
     12 C         139.9167  143.4048  165.6648 C.3     1  UNL1        0.0000
     13 C         138.9409  144.5145  165.4069 C.3     1  UNL1        0.0000
     14 C         141.3932  139.7175  167.9372 C.3     1  UNL1        0.0264
     15 C         141.5818  140.9968  168.6973 C.ar    1  UNL1       -0.0222
     16 C         140.4154  141.9116  168.9273 C.ar    1  UNL1       -0.0043
     17 C         140.6041  143.1908  169.6874 C.ar    1  UNL1       -0.0003
     18 C         141.9591  143.5553  170.2177 C.ar    1  UNL1       -0.0000
     19 C         143.1254  142.6406  169.9879 C.ar    1  UNL1       -0.0003
     20 C         142.9368  141.3613  169.2276 C.ar    1  UNL1       -0.0043
@<TRIPOS>BOND
     1    12    13    1
     2    13    11    1
     3    11    10    1
     4    10     9    1
     5     9     8    1
     6     8     7    1
     7     7     1    1
     8     1     2    1
     9     2     3    1
    10     3     4    1
    11     4    14    1
    12    14    15    1
    13    15    16   ar
    14    16    17   ar
    15    17    18   ar
    16    18    19   ar
    17    19    20   ar
    18     4     5    1
    19     5     6    1
    20     6     1    1
    21    20    15   ar
@<TRIPOS>MOLECULE
*****
 20 21 0 0 0
SMALL
GASTEIGER

@<TRIPOS>ATOM
      1 N         138.8150  140.5438  163.6080 N.3     1  UNL1       -0.2727
      2 C         140.2325  140.3547  163.1557 C.3     1  UNL1        0.0721
      3 C         141.2732  139.8824  164.1273 C.3     1  UNL1        0.0177
      4 C         140.8962  139.5992  165.5512 C.3     1  UNL1        0.0071
      5 C         139.4786  139.7882  166.0036 C.3     1  UNL1        0.0177
      6 C         138.4380  140.2605  165.0319 C.3     1  UNL1        0.0721
      7 C         137.7743  141.0160  162.6364 C.3     1  UNL1        0.0721
      8 C         137.6822  142.4712  162.2845 C.3     1  UNL1        0.0173
      9 C         137.6546  143.5052  163.3708 C.3     1  UNL1        0.0014
     10 C         138.7903  144.4749  163.5124 C.3     1  UNL1        0.0000
     11 C         140.2021  143.9721  163.5766 C.3     1  UNL1        0.0000
     12 C         139.9233  143.4569  166.1078 C.3     1  UNL1        0.0000
     13 C         140.7978  143.5758  164.8949 C.3     1  UNL1        0.0000
     14 C         141.9368  139.1269  166.5229 C.3     1  UNL1        0.0264
     15 C         142.3923  140.0290  167.6314 C.ar    1  UNL1       -0.0222
     16 C         142.7811  141.4466  167.3329 C.ar    1  UNL1       -0.0043
     17 C         143.2366  142.3487  168.4414 C.ar    1  UNL1       -0.0003
     18 C         143.3032  141.8331  169.8485 C.ar    1  UNL1       -0.0000
     19 C         142.9144  140.4155  170.1470 C.ar    1  UNL1       -0.0003
     20 C         142.4589  139.5134  169.0384 C.ar    1  UNL1       -0.0043
@<TRIPOS>BOND
     1    12    13    1
     2    13    11    1
     3    11    10    1
     4    10     9    1
     5     9     8    1
     6     8     7    1
     7     7     1    1
     8     1     2    1
     9     2     3    1
    10     3     4    1
    11     4    14    1
    12    14    15    1
    13    15    16   ar
    14    16    17   ar
    15    17    18   ar
    16    18    19   ar
    17    19    20   ar
    18     4     5    1
    19     5     6    1
    20     6     1    1
    21    20    15   ar
@<TRIPOS>MOLECULE
*****
 20 21 0 0 0
SMALL
GASTEIGER

@<TRIPOS>ATOM
      1 N         139.2325  141.0316  163.4556 N.3     1  UNL1       -0.2727
      2 C         140.5290  141.4496  164.0835 C.3     1  UNL1        0.0721
      3 C         140.7818  141.1748  165.5362 C.3     1  UNL1        0.0177
      4 C         139.7381  140.4821  166.3612 C.3     1  UNL1        0.0071
      5 C         138.4415  140.0641  165.7334 C.3     1  UNL1        0.0177
      6 C         138.1887  140.3389  164.2806 C.3     1  UNL1        0.0721
      7 C         138.9797  141.3064  162.0029 C.3     1  UNL1        0.0721
      8 C         138.4797  142.6527  161.5701 C.3     1  UNL1        0.0173
      9 C         139.4304  143.8084  161.4676 C.3     1  UNL1        0.0014
     10 C         139.2940  144.9767  162.3987 C.3     1  UNL1        0.0000
     11 C         139.8816  144.9097  163.7771 C.3     1  UNL1        0.0000
     12 C         137.7455  143.9877  164.9334 C.3     1  UNL1        0.0000
     13 C         138.9803  144.8384  164.9740 C.3     1  UNL1        0.0000
     14 C         139.9909  140.2073  167.8140 C.3     1  UNL1        0.0264
     15 C         140.9104  141.0971  168.5967 C.ar    1  UNL1       -0.0222
     16 C         142.3114  140.6515  168.8946 C.ar    1  UNL1       -0.0043
     17 C         143.2310  141.5414  169.6773 C.ar    1  UNL1       -0.0003
     18 C         142.7496  142.8768  170.1620 C.ar    1  UNL1       -0.0000
     19 C         141.3487  143.3224  169.8641 C.ar    1  UNL1       -0.0003
     20 C         140.4291  142.4325  169.0814 C.ar    1  UNL1       -0.0043
@<TRIPOS>BOND
     1    12    13    1
     2    13    11    1
     3    11    10    1
     4    10     9    1
     5     9     8    1
     6     8     7    1
     7     7     1    1
     8     1     2    1
     9     2     3    1
    10     3     4    1
    11     4    14    1
    12    14    15    1
    13    15    16   ar
    14    16    17   ar
    15    17    18   ar
    16    18    19   ar
    17    19    20   ar
    18     4     5    1
    19     5     6    1
    20     6     1    1
    21    20    15   ar
@<TRIPOS>MOLECULE
*****
 20 21 0 0 0
SMALL
GASTEIGER

@<TRIPOS>ATOM
      1 N         142.5177  143.2074  163.2821 N.3     1  UNL1       -0.2727
      2 C         141.3969  142.5973  164.0704 C.3     1  UNL1        0.0721
      3 C         141.5939  142.2640  165.5196 C.3     1  UNL1        0.0177
      4 C         142.9118  142.5407  166.1804 C.3     1  UNL1        0.0071
      5 C         144.0325  143.1508  165.3920 C.3     1  UNL1        0.0177
      6 C         143.8355  143.4842  163.9429 C.3     1  UNL1        0.0721
      7 C         142.3207  143.5408  161.8329 C.3     1  UNL1        0.0721
      8 C         141.4926  144.7290  161.4425 C.3     1  UNL1        0.0173
      9 C         139.9982  144.6145  161.3819 C.3     1  UNL1        0.0014
     10 C         139.1600  145.1310  162.5136 C.3     1  UNL1        0.0000
     11 C         138.0179  144.3109  163.0361 C.3     1  UNL1        0.0000
     12 C         138.6514  144.9089  165.4838 C.3     1  UNL1        0.0000
     13 C         137.8832  144.0656  164.5098 C.3     1  UNL1        0.0000
     14 C         143.1088  142.2074  167.6295 C.3     1  UNL1        0.0264
     15 C         141.9304  141.8385  168.4812 C.ar    1  UNL1       -0.0222
     16 C         141.1486  142.9086  169.1839 C.ar    1  UNL1       -0.0043
     17 C         139.9703  142.5397  170.0356 C.ar    1  UNL1       -0.0003
     18 C         139.5737  141.1008  170.1846 C.ar    1  UNL1       -0.0000
     19 C         140.3554  140.0308  169.4819 C.ar    1  UNL1       -0.0003
     20 C         141.5338  140.3996  168.6302 C.ar    1  UNL1       -0.0043
@<TRIPOS>BOND
     1    12    13    1
     2    13    11    1
     3    11    10    1
     4    10     9    1
     5     9     8    1
     6     8     7    1
     7     7     1    1
     8     1     2    1
     9     2     3    1
    10     3     4    1
    11     4    14    1
    12    14    15    1
    13    15    16   ar
    14    16    17   ar
    15    17    18   ar
    16    18    19   ar
    17    19    20   ar
    18     4     5    1
    19     5     6    1
    20     6     1    1
    21    20    15   ar
@<TRIPOS>MOLECULE
*****
 20 21 0 0 0
SMALL
GASTEIGER

@<TRIPOS>ATOM
      1 N         138.3458  138.8908  163.0128 N.3     1  UNL1       -0.2727
      2 C         138.0436  140.2407  163.5929 C.3     1  UNL1        0.0721
      3 C         138.2786  140.5000  165.0515 C.3     1  UNL1        0.0177
      4 C         138.8159  139.4094  165.9300 C.3     1  UNL1        0.0071
      5 C         139.1182  138.0596  165.3500 C.3     1  UNL1        0.0177
      6 C         138.8831  137.8003  163.8914 C.3     1  UNL1        0.0721
      7 C         138.1108  138.6315  161.5542 C.3     1  UNL1        0.0721
      8 C         139.2625  138.2798  160.6599 C.3     1  UNL1        0.0173
      9 C         140.4324  139.2112  160.5424 C.3     1  UNL1        0.0014
     10 C         141.4920  139.2221  161.6042 C.3     1  UNL1        0.0000
     11 C         141.6307  140.4073  162.5131 C.3     1  UNL1        0.0000
     12 C         142.2277  141.3814  164.8464 C.3     1  UNL1        0.0000
     13 C         141.9090  140.2043  163.9729 C.3     1  UNL1        0.0000
     14 C         139.0510  139.6687  167.3886 C.3     1  UNL1        0.0264
     15 C         140.2927  140.3834  167.8328 C.ar    1  UNL1       -0.0222
     16 C         140.2766  141.8723  168.0152 C.ar    1  UNL1       -0.0043
     17 C         141.5183  142.5869  168.4593 C.ar    1  UNL1       -0.0003
     18 C         142.7762  141.8129  168.7211 C.ar    1  UNL1       -0.0000
     19 C         142.7924  140.3241  168.5387 C.ar    1  UNL1       -0.0003
     20 C         141.5506  139.6093  168.0945 C.ar    1  UNL1       -0.0043
@<TRIPOS>BOND
     1    12    13    1
     2    13    11    1
     3    11    10    1
     4    10     9    1
     5     9     8    1
     6     8     7    1
     7     7     1    1
     8     1     2    1
     9     2     3    1
    10     3     4    1
    11     4    14    1
    12    14    15    1
    13    15    16   ar
    14    16    17   ar
    15    17    18   ar
    16    18    19   ar
    17    19    20   ar
    18     4     5    1
    19     5     6    1
    20     6     1    1
    21    20    15   ar
@<TRIPOS>MOLECULE
*****
 20 21 0 0 0
SMALL
GASTEIGER

@<TRIPOS>ATOM
      1 N         142.1936  138.8411  163.9511 N.3     1  UNL1       -0.2727
      2 C         140.8124  139.3725  163.7064 C.3     1  UNL1        0.0721
      3 C         139.9642  139.8165  164.8611 C.3     1  UNL1        0.0177
      4 C         140.4971  139.7291  166.2605 C.3     1  UNL1        0.0071
      5 C         141.8783  139.1977  166.5051 C.3     1  UNL1        0.0177
      6 C         142.7266  138.7537  165.3504 C.3     1  UNL1        0.0721
      7 C         143.0418  138.3971  162.7964 C.3     1  UNL1        0.0721
      8 C         144.3171  139.1209  162.4805 C.3     1  UNL1        0.0173
      9 C         144.4175  140.5994  162.7127 C.3     1  UNL1        0.0014
     10 C         145.2592  141.1266  163.8368 C.3     1  UNL1        0.0000
     11 C         144.8586  142.3856  164.5471 C.3     1  UNL1        0.0000
     12 C         142.3398  142.7193  165.0895 C.3     1  UNL1        0.0000
     13 C         143.7280  142.3635  165.5326 C.3     1  UNL1        0.0000
     14 C         139.6489  140.1731  167.4152 C.3     1  UNL1        0.0264
     15 C         140.2801  140.8639  168.5875 C.ar    1  UNL1       -0.0222
     16 C         140.7818  142.2707  168.4481 C.ar    1  UNL1       -0.0043
     17 C         141.4130  142.9614  169.6204 C.ar    1  UNL1       -0.0003
     18 C         141.5425  142.2455  170.9322 C.ar    1  UNL1       -0.0000
     19 C         141.0408  140.8388  171.0716 C.ar    1  UNL1       -0.0003
     20 C         140.4096  140.1480  169.8993 C.ar    1  UNL1       -0.0043
@<TRIPOS>BOND
     1    12    13    1
     2    13    11    1
     3    11    10    1
     4    10     9    1
     5     9     8    1
     6     8     7    1
     7     7     1    1
     8     1     2    1
     9     2     3    1
    10     3     4    1
    11     4    14    1
    12    14    15    1
    13    15    16   ar
    14    16    17   ar
    15    17    18   ar
    16    18    19   ar
    17    19    20   ar
    18     4     5    1
    19     5     6    1
    20     6     1    1
    21    20    15   ar
