@<TRIPOS>MOLECULE
*****
 20 22 0 0 0
SMALL
GASTEIGER

@<TRIPOS>ATOM
      1 C         140.8574  144.5485  159.4348 C.ar    1  UNL1        0.1401
      2 C         139.9042  143.9552  158.4402 C.ar    1  UNL1        0.0370
      3 C         138.8956  142.9371  158.8831 C.ar    1  UNL1        0.0047
      4 C         138.8402  142.5123  160.3206 C.ar    1  UNL1        0.0193
      5 C         139.7934  143.1056  161.3152 C.ar    1  UNL1        0.0849
      6 N         139.7380  142.6808  162.7528 N.ar    1  UNL1       -0.2370
      7 C         140.6912  143.2742  163.7474 C.ar    1  UNL1        0.1228
      8 C         141.6999  144.2923  163.3045 C.ar    1  UNL1        0.0277
      9 C         141.7552  144.7171  161.8670 C.ar    1  UNL1        0.0067
     10 C         140.8020  144.1237  160.8723 C.ar    1  UNL1        0.0517
     11 C         142.0097  145.8957  157.5356 C.3     1  UNL1        0.2525
     12 O         141.8660  145.5666  158.9919 O.3     1  UNL1       -0.4714
     13 C         140.6359  142.8494  165.1850 C.1     1  UNL1       -0.0405
     14 C         140.5805  142.4247  166.6225 C.1     1  UNL1       -0.0583
     15 C         140.5251  141.9999  168.0600 C.ar    1  UNL1        0.0420
     16 C         140.5527  140.5423  168.4130 C.ar    1  UNL1        0.0082
     17 C         140.4973  140.1175  169.8505 C.ar    1  UNL1        0.0006
     18 C         140.4143  141.1504  170.9351 C.ar    1  UNL1        0.0000
     19 C         140.3867  142.6080  170.5822 C.ar    1  UNL1        0.0006
     20 C         140.4421  143.0328  169.1446 C.ar    1  UNL1        0.0082
@<TRIPOS>BOND
     1    11    12    1
     2    12     1    1
     3     1     2   ar
     4     2     3   ar
     5     3     4   ar
     6     4     5   ar
     7     5     6   ar
     8     6     7   ar
     9     7    13    1
    10    13    14    3
    11    14    15    1
    12    15    16   ar
    13    16    17   ar
    14    17    18   ar
    15    18    19   ar
    16    19    20   ar
    17     7     8   ar
    18     8     9   ar
    19     9    10   ar
    20    10     1   ar
    21    10     5   ar
    22    20    15   ar
@<TRIPOS>MOLECULE
*****
 20 22 0 0 0
SMALL
GASTEIGER

@<TRIPOS>ATOM
      1 C         141.4106  145.0383  158.9500 C.ar    1  UNL1        0.1401
      2 C         142.4786  144.4239  158.0945 C.ar    1  UNL1        0.0370
      3 C         143.3606  143.3473  158.6538 C.ar    1  UNL1        0.0047
      4 C         143.1746  142.8849  160.0686 C.ar    1  UNL1        0.0193
      5 C         142.1066  143.4992  160.9240 C.ar    1  UNL1        0.0849
      6 N         141.9205  143.0369  162.3389 N.ar    1  UNL1       -0.2370
      7 C         140.8525  143.6512  163.1943 C.ar    1  UNL1        0.1228
      8 C         139.9704  144.7279  162.6350 C.ar    1  UNL1        0.0277
      9 C         140.1565  145.1902  161.2203 C.ar    1  UNL1        0.0067
     10 C         141.2245  144.5759  160.3647 C.ar    1  UNL1        0.0517
     11 C         140.0978  146.0611  156.9549 C.3     1  UNL1        0.2525
     12 O         140.5286  146.1149  158.3907 O.3     1  UNL1       -0.4714
     13 C         140.6664  143.1889  164.6092 C.1     1  UNL1       -0.0405
     14 C         140.4803  142.7266  166.0239 C.1     1  UNL1       -0.0583
     15 C         140.2942  142.2643  167.4387 C.ar    1  UNL1        0.0420
     16 C         140.4341  143.2386  168.5707 C.ar    1  UNL1        0.0082
     17 C         140.2480  142.7763  169.9854 C.ar    1  UNL1        0.0006
     18 C         139.9220  141.3398  170.2683 C.ar    1  UNL1        0.0000
     19 C         139.7821  140.3655  169.1365 C.ar    1  UNL1        0.0006
     20 C         139.9682  140.8278  167.7216 C.ar    1  UNL1        0.0082
@<TRIPOS>BOND
     1    11    12    1
     2    12     1    1
     3     1     2   ar
     4     2     3   ar
     5     3     4   ar
     6     4     5   ar
     7     5     6   ar
     8     6     7   ar
     9     7    13    1
    10    13    14    3
    11    14    15    1
    12    15    16   ar
    13    16    17   ar
    14    17    18   ar
    15    18    19   ar
    16    19    20   ar
    17     7     8   ar
    18     8     9   ar
    19     9    10   ar
    20    10     1   ar
    21    10     5   ar
    22    20    15   ar
@<TRIPOS>MOLECULE
*****
 20 22 0 0 0
SMALL
GASTEIGER

@<TRIPOS>ATOM
      1 C         144.4211  142.7397  162.6269 C.ar    1  UNL1        0.1401
      2 C         144.9803  142.3667  163.9678 C.ar    1  UNL1        0.0370
      3 C         145.1780  140.9228  164.3227 C.ar    1  UNL1        0.0047
      4 C         144.8166  139.8519  163.3366 C.ar    1  UNL1        0.0193
      5 C         144.2574  140.2249  161.9957 C.ar    1  UNL1        0.0849
      6 N         143.8959  139.1539  161.0095 N.ar    1  UNL1       -0.2370
      7 C         143.3367  139.5269  159.6686 C.ar    1  UNL1        0.1228
      8 C         143.1390  140.9708  159.3137 C.ar    1  UNL1        0.0277
      9 C         143.5004  142.0418  160.2998 C.ar    1  UNL1        0.0067
     10 C         144.0596  141.6688  161.6408 C.ar    1  UNL1        0.0517
     11 C         143.7085  145.1453  163.3016 C.3     1  UNL1        0.2525
     12 O         144.2234  144.1837  162.2720 O.3     1  UNL1       -0.4714
     13 C         142.9752  138.4559  158.6824 C.1     1  UNL1       -0.0405
     14 C         142.6138  137.3850  157.6963 C.1     1  UNL1       -0.0583
     15 C         142.2524  136.3141  156.7102 C.ar    1  UNL1        0.0420
     16 C         142.9537  134.9887  156.7516 C.ar    1  UNL1        0.0082
     17 C         142.5923  133.9178  155.7655 C.ar    1  UNL1        0.0006
     18 C         141.5296  134.1721  154.7380 C.ar    1  UNL1        0.0000
     19 C         140.8283  135.4974  154.6965 C.ar    1  UNL1        0.0006
     20 C         141.1897  136.5684  155.6826 C.ar    1  UNL1        0.0082
@<TRIPOS>BOND
     1    11    12    1
     2    12     1    1
     3     1     2   ar
     4     2     3   ar
     5     3     4   ar
     6     4     5   ar
     7     5     6   ar
     8     6     7   ar
     9     7    13    1
    10    13    14    3
    11    14    15    1
    12    15    16   ar
    13    16    17   ar
    14    17    18   ar
    15    18    19   ar
    16    19    20   ar
    17     7     8   ar
    18     8     9   ar
    19     9    10   ar
    20    10     1   ar
    21    10     5   ar
    22    20    15   ar
@<TRIPOS>MOLECULE
*****
 20 22 0 0 0
SMALL
GASTEIGER

@<TRIPOS>ATOM
      1 C         141.9534  143.0604  165.2062 C.ar    1  UNL1        0.1401
      2 C         143.3541  142.7081  165.6111 C.ar    1  UNL1        0.0370
      3 C         144.4833  142.8889  164.6404 C.ar    1  UNL1        0.0047
      4 C         144.2119  143.4219  163.2648 C.ar    1  UNL1        0.0193
      5 C         142.8112  143.7741  162.8599 C.ar    1  UNL1        0.0849
      6 N         142.5397  144.3071  161.4843 N.ar    1  UNL1       -0.2370
      7 C         141.1390  144.6593  161.0794 C.ar    1  UNL1        0.1228
      8 C         140.0098  144.4786  162.0501 C.ar    1  UNL1        0.0277
      9 C         140.2812  143.9456  163.4256 C.ar    1  UNL1        0.0067
     10 C         141.6819  143.5933  163.8306 C.ar    1  UNL1        0.0517
     11 C         140.0942  141.5709  166.2428 C.3     1  UNL1        0.2525
     12 O         140.8242  142.8796  166.1768 O.3     1  UNL1       -0.4714
     13 C         140.8675  145.1924  159.7038 C.1     1  UNL1       -0.0405
     14 C         140.5960  145.7253  158.3282 C.1     1  UNL1       -0.0583
     15 C         140.3245  146.2583  156.9527 C.ar    1  UNL1        0.0420
     16 C         141.1525  145.7936  155.7914 C.ar    1  UNL1        0.0082
     17 C         140.8810  146.3265  154.4158 C.ar    1  UNL1        0.0006
     18 C         139.7817  147.3242  154.2015 C.ar    1  UNL1        0.0000
     19 C         138.9537  147.7889  155.3627 C.ar    1  UNL1        0.0006
     20 C         139.2252  147.2560  156.7384 C.ar    1  UNL1        0.0082
@<TRIPOS>BOND
     1    11    12    1
     2    12     1    1
     3     1     2   ar
     4     2     3   ar
     5     3     4   ar
     6     4     5   ar
     7     5     6   ar
     8     6     7   ar
     9     7    13    1
    10    13    14    3
    11    14    15    1
    12    15    16   ar
    13    16    17   ar
    14    17    18   ar
    15    18    19   ar
    16    19    20   ar
    17     7     8   ar
    18     8     9   ar
    19     9    10   ar
    20    10     1   ar
    21    10     5   ar
    22    20    15   ar
@<TRIPOS>MOLECULE
*****
 20 22 0 0 0
SMALL
GASTEIGER

@<TRIPOS>ATOM
      1 C         140.2494  144.8494  163.3940 C.ar    1  UNL1        0.1401
      2 C         139.4692  144.8348  164.6750 C.ar    1  UNL1        0.0370
      3 C         138.1454  144.1323  164.7389 C.ar    1  UNL1        0.0047
      4 C         137.6018  143.4445  163.5218 C.ar    1  UNL1        0.0193
      5 C         138.3820  143.4591  162.2408 C.ar    1  UNL1        0.0849
      6 N         137.8384  142.7713  161.0236 N.ar    1  UNL1       -0.2370
      7 C         138.6186  142.7860  159.7426 C.ar    1  UNL1        0.1228
      8 C         139.9424  143.4885  159.6787 C.ar    1  UNL1        0.0277
      9 C         140.4860  144.1763  160.8958 C.ar    1  UNL1        0.0067
     10 C         139.7058  144.1616  162.1769 C.ar    1  UNL1        0.0517
     11 C         142.8031  144.8847  163.8704 C.3     1  UNL1        0.2525
     12 O         141.5732  145.5519  163.3301 O.3     1  UNL1       -0.4714
     13 C         138.0750  142.0982  158.5254 C.1     1  UNL1       -0.0405
     14 C         137.5315  141.4104  157.3082 C.1     1  UNL1       -0.0583
     15 C         136.9879  140.7227  156.0911 C.ar    1  UNL1        0.0420
     16 C         135.5182  140.7722  155.7951 C.ar    1  UNL1        0.0082
     17 C         134.9747  140.0844  154.5779 C.ar    1  UNL1        0.0006
     18 C         135.9008  139.3471  153.6567 C.ar    1  UNL1        0.0000
     19 C         137.3704  139.2976  153.9526 C.ar    1  UNL1        0.0006
     20 C         137.9140  139.9854  155.1698 C.ar    1  UNL1        0.0082
@<TRIPOS>BOND
     1    11    12    1
     2    12     1    1
     3     1     2   ar
     4     2     3   ar
     5     3     4   ar
     6     4     5   ar
     7     5     6   ar
     8     6     7   ar
     9     7    13    1
    10    13    14    3
    11    14    15    1
    12    15    16   ar
    13    16    17   ar
    14    17    18   ar
    15    18    19   ar
    16    19    20   ar
    17     7     8   ar
    18     8     9   ar
    19     9    10   ar
    20    10     1   ar
    21    10     5   ar
    22    20    15   ar
@<TRIPOS>MOLECULE
*****
 20 22 0 0 0
SMALL
GASTEIGER

@<TRIPOS>ATOM
      1 C         139.9760  141.1295  167.8230 C.ar    1  UNL1        0.1401
      2 C         139.2157  139.8900  168.1913 C.ar    1  UNL1        0.0370
      3 C         138.4429  139.1451  167.1434 C.ar    1  UNL1        0.0047
      4 C         138.4305  139.6397  165.7274 C.ar    1  UNL1        0.0193
      5 C         139.1908  140.8791  165.3592 C.ar    1  UNL1        0.0849
      6 N         139.1784  141.3737  163.9430 N.ar    1  UNL1       -0.2370
      7 C         139.9387  142.6132  163.5748 C.ar    1  UNL1        0.1228
      8 C         140.7115  143.3581  164.6227 C.ar    1  UNL1        0.0277
      9 C         140.7239  142.8635  166.0387 C.ar    1  UNL1        0.0067
     10 C         139.9636  141.6240  166.4070 C.ar    1  UNL1        0.0517
     11 C         140.0274  142.5259  170.0133 C.3     1  UNL1        0.2525
     12 O         140.7487  141.8744  168.8709 O.3     1  UNL1       -0.4714
     13 C         139.9263  143.1078  162.1587 C.1     1  UNL1       -0.0405
     14 C         139.9139  143.6023  160.7427 C.1     1  UNL1       -0.0583
     15 C         139.9015  144.0968  159.3266 C.ar    1  UNL1        0.0420
     16 C         140.5396  145.4108  158.9854 C.ar    1  UNL1        0.0082
     17 C         140.5272  145.9053  157.5694 C.ar    1  UNL1        0.0006
     18 C         139.8768  145.0859  156.4945 C.ar    1  UNL1        0.0000
     19 C         139.2387  143.7720  156.8356 C.ar    1  UNL1        0.0006
     20 C         139.2511  143.2774  158.2517 C.ar    1  UNL1        0.0082
@<TRIPOS>BOND
     1    11    12    1
     2    12     1    1
     3     1     2   ar
     4     2     3   ar
     5     3     4   ar
     6     4     5   ar
     7     5     6   ar
     8     6     7   ar
     9     7    13    1
    10    13    14    3
    11    14    15    1
    12    15    16   ar
    13    16    17   ar
    14    17    18   ar
    15    18    19   ar
    16    19    20   ar
    17     7     8   ar
    18     8     9   ar
    19     9    10   ar
    20    10     1   ar
    21    10     5   ar
    22    20    15   ar
@<TRIPOS>MOLECULE
*****
 20 22 0 0 0
SMALL
GASTEIGER

@<TRIPOS>ATOM
      1 C         140.4932  143.6442  164.6579 C.ar    1  UNL1        0.1401
      2 C         139.1843  143.5888  165.3884 C.ar    1  UNL1        0.0370
      3 C         137.9150  143.9640  164.6826 C.ar    1  UNL1        0.0047
      4 C         137.9546  144.3946  163.2463 C.ar    1  UNL1        0.0193
      5 C         139.2635  144.4500  162.5158 C.ar    1  UNL1        0.0849
      6 N         139.3031  144.8806  161.0794 N.ar    1  UNL1       -0.2370
      7 C         140.6120  144.9360  160.3489 C.ar    1  UNL1        0.1228
      8 C         141.8813  144.5608  161.0547 C.ar    1  UNL1        0.0277
      9 C         141.8417  144.1302  162.4910 C.ar    1  UNL1        0.0067
     10 C         140.5328  144.0748  163.2216 C.ar    1  UNL1        0.0517
     11 C         141.7540  142.1776  166.3926 C.3     1  UNL1        0.2525
     12 O         141.7625  143.2690  165.3637 O.3     1  UNL1       -0.4714
     13 C         140.6517  145.3666  158.9125 C.1     1  UNL1       -0.0405
     14 C         140.6913  145.7971  157.4763 C.1     1  UNL1       -0.0583
     15 C         140.7310  146.2277  156.0400 C.ar    1  UNL1        0.0420
     16 C         141.5558  145.4604  155.0494 C.ar    1  UNL1        0.0082
     17 C         141.5954  145.8910  153.6131 C.ar    1  UNL1        0.0006
     18 C         140.8104  147.0889  153.1673 C.ar    1  UNL1        0.0000
     19 C         139.9858  147.8562  154.1578 C.ar    1  UNL1        0.0006
     20 C         139.9460  147.4257  155.5941 C.ar    1  UNL1        0.0082
@<TRIPOS>BOND
     1    11    12    1
     2    12     1    1
     3     1     2   ar
     4     2     3   ar
     5     3     4   ar
     6     4     5   ar
     7     5     6   ar
     8     6     7   ar
     9     7    13    1
    10    13    14    3
    11    14    15    1
    12    15    16   ar
    13    16    17   ar
    14    17    18   ar
    15    18    19   ar
    16    19    20   ar
    17     7     8   ar
    18     8     9   ar
    19     9    10   ar
    20    10     1   ar
    21    10     5   ar
    22    20    15   ar
@<TRIPOS>MOLECULE
*****
 20 22 0 0 0
SMALL
GASTEIGER

@<TRIPOS>ATOM
      1 C         138.6237  139.8220  159.0489 C.ar    1  UNL1        0.1401
      2 C         139.6854  139.1332  158.2438 C.ar    1  UNL1        0.0370
      3 C         140.9678  138.7120  158.8979 C.ar    1  UNL1        0.0047
      4 C         141.1886  138.9796  160.3572 C.ar    1  UNL1        0.0193
      5 C         140.1270  139.6684  161.1623 C.ar    1  UNL1        0.0849
      6 N         140.3477  139.9361  162.6217 N.ar    1  UNL1       -0.2370
      7 C         139.2861  140.6249  163.4269 C.ar    1  UNL1        0.1228
      8 C         138.0036  141.0461  162.7728 C.ar    1  UNL1        0.0277
      9 C         137.7828  140.7785  161.3135 C.ar    1  UNL1        0.0067
     10 C         138.8445  140.0896  160.5082 C.ar    1  UNL1        0.0517
     11 C         137.3729  140.9971  157.0984 C.3     1  UNL1        0.2525
     12 O         137.3413  140.2433  158.3948 O.3     1  UNL1       -0.4714
     13 C         139.5068  140.8926  164.8863 C.1     1  UNL1       -0.0405
     14 C         139.7275  141.1602  166.3456 C.1     1  UNL1       -0.0583
     15 C         139.9482  141.4278  167.8049 C.ar    1  UNL1        0.0420
     16 C         140.5125  142.7449  168.2489 C.ar    1  UNL1        0.0082
     17 C         140.7332  143.0125  169.7082 C.ar    1  UNL1        0.0006
     18 C         140.3897  141.9632  170.7235 C.ar    1  UNL1        0.0000
     19 C         139.8254  140.6462  170.2796 C.ar    1  UNL1        0.0006
     20 C         139.6047  140.3785  168.8202 C.ar    1  UNL1        0.0082
@<TRIPOS>BOND
     1    11    12    1
     2    12     1    1
     3     1     2   ar
     4     2     3   ar
     5     3     4   ar
     6     4     5   ar
     7     5     6   ar
     8     6     7   ar
     9     7    13    1
    10    13    14    3
    11    14    15    1
    12    15    16   ar
    13    16    17   ar
    14    17    18   ar
    15    18    19   ar
    16    19    20   ar
    17     7     8   ar
    18     8     9   ar
    19     9    10   ar
    20    10     1   ar
    21    10     5   ar
    22    20    15   ar
@<TRIPOS>MOLECULE
*****
 20 22 0 0 0
SMALL
GASTEIGER

@<TRIPOS>ATOM
      1 C         141.7189  138.1665  159.0693 C.ar    1  UNL1        0.1401
      2 C         140.6101  138.5242  158.1246 C.ar    1  UNL1        0.0370
      3 C         139.3549  139.1581  158.6470 C.ar    1  UNL1        0.0047
      4 C         139.2087  139.4343  160.1140 C.ar    1  UNL1        0.0193
      5 C         140.3175  139.0766  161.0587 C.ar    1  UNL1        0.0849
      6 N         140.1713  139.3529  162.5258 N.ar    1  UNL1       -0.2370
      7 C         141.2801  138.9952  163.4705 C.ar    1  UNL1        0.1228
      8 C         142.5352  138.3613  162.9482 C.ar    1  UNL1        0.0277
      9 C         142.6815  138.0851  161.4811 C.ar    1  UNL1        0.0067
     10 C         141.5726  138.4428  160.5363 C.ar    1  UNL1        0.0517
     11 C         142.9669  136.8402  157.2164 C.3     1  UNL1        0.2525
     12 O         142.9740  137.5326  158.5470 O.3     1  UNL1       -0.4714
     13 C         141.1339  139.2715  164.9376 C.1     1  UNL1       -0.0405
     14 C         140.9877  139.5476  166.4047 C.1     1  UNL1       -0.0583
     15 C         140.8415  139.8238  167.8718 C.ar    1  UNL1        0.0420
     16 C         139.5036  140.2041  168.4337 C.ar    1  UNL1        0.0082
     17 C         139.3574  140.4802  169.9008 C.ar    1  UNL1        0.0006
     18 C         140.5490  140.3762  170.8059 C.ar    1  UNL1        0.0000
     19 C         141.8868  139.9960  170.2441 C.ar    1  UNL1        0.0006
     20 C         142.0330  139.7198  168.7769 C.ar    1  UNL1        0.0082
@<TRIPOS>BOND
     1    11    12    1
     2    12     1    1
     3     1     2   ar
     4     2     3   ar
     5     3     4   ar
     6     4     5   ar
     7     5     6   ar
     8     6     7   ar
     9     7    13    1
    10    13    14    3
    11    14    15    1
    12    15    16   ar
    13    16    17   ar
    14    17    18   ar
    15    18    19   ar
    16    19    20   ar
    17     7     8   ar
    18     8     9   ar
    19     9    10   ar
    20    10     1   ar
    21    10     5   ar
    22    20    15   ar
