@<TRIPOS>MOLECULE
*****
 35 39 0 0 0
SMALL
GASTEIGER

@<TRIPOS>ATOM
      1 C         139.3258  143.0188  163.2075 C.ar    1  UNL1        0.0535
      2 C         138.0430  142.2743  162.9843 C.ar    1  UNL1        0.0146
      3 C         137.6484  141.1648  163.9133 C.ar    1  UNL1       -0.0033
      4 C         138.5366  140.7998  165.0656 C.ar    1  UNL1       -0.0260
      5 C         139.8195  141.5443  165.2889 C.ar    1  UNL1       -0.0236
      6 C         140.2141  142.6538  164.3598 C.ar    1  UNL1        0.0104
      7 C         140.7077  141.1793  166.4411 C.3     1  UNL1        0.0410
      8 C         140.3131  140.0698  167.3702 C.3     1  UNL1        0.0621
      9 C         139.0302  139.3252  167.1470 C.3     1  UNL1        0.0210
     10 C         138.1419  139.6902  165.9947 C.3     1  UNL1        0.0274
     11 C         140.8449  145.3910  160.5372 C.3     1  UNL1        0.1532
     12 C         139.8105  146.2808  161.1604 C.3     1  UNL1        0.0486
     13 C         139.1156  145.5004  162.2366 C.3     1  UNL1        0.1002
     14 N         139.7205  144.1284  162.2784 N.am    1  UNL1       -0.2575
     15 C         140.7893  144.0609  161.2282 C.2     1  UNL1        0.2452
     16 O         141.6511  142.8718  160.9225 O.2     1  UNL1       -0.2730
     17 N         141.7722  145.7658  159.4193 N.3     1  UNL1       -0.1758
     18 H         141.6742  146.7714  159.2800 H       1  UNL1        0.1489
     19 S         141.6197  145.1250  158.0716 S.O2    1  UNL1        0.0411
     20 O         140.3442  145.8842  157.8551 O.2     1  UNL1       -0.1575
     21 O         142.8951  144.3659  158.2882 O.2     1  UNL1       -0.1575
     22 C         141.4671  144.4843  156.7240 C.3     1  UNL1        0.1688
     23 C         141.3066  145.6428  154.4040 C.3     1  UNL1        0.0019
     24 C         142.1354  145.0902  155.5255 C.3     1  UNL1        0.0270
     25 N         141.2014  139.7048  168.5225 N.3     1  UNL1       -0.2735
     26 C         141.0703  139.7429  170.0163 C.3     1  UNL1        0.0735
     27 C         142.4575  139.1886  170.1521 C.3     1  UNL1        0.0346
     28 C         142.5885  139.1505  168.6584 C.3     1  UNL1        0.0735
     29 C         141.9906  141.9239  166.6644 C.3     1  UNL1        0.0320
     30 C         143.1606  141.6917  165.7549 C.ar    1  UNL1       -0.0218
     31 C         144.0116  142.8470  165.3177 C.ar    1  UNL1       -0.0043
     32 C         145.1816  142.6148  164.4082 C.ar    1  UNL1       -0.0003
     33 C         145.5005  141.2273  163.9359 C.ar    1  UNL1       -0.0000
     34 C         144.6496  140.0720  164.3730 C.ar    1  UNL1       -0.0003
     35 C         143.4796  140.3042  165.2825 C.ar    1  UNL1       -0.0043
@<TRIPOS>BOND
     1    23    24    1
     2    24    22    1
     3    22    19    1
     4    19    20    2
     5    19    21    2
     6    19    17    1
     7    11    17    1
     8    11    12    1
     9    12    13    1
    10    13    14    1
    11    14     1    1
    12     1     2   ar
    13     2     3   ar
    14     3     4   ar
    15     4     5   ar
    16     5     6   ar
    17     5     7    1
    18     7    29    1
    19    29    30    1
    20    30    31   ar
    21    31    32   ar
    22    32    33   ar
    23    33    34   ar
    24    34    35   ar
    25     7     8    1
    26     8    25    1
    27    25    26    1
    28    26    27    1
    29    27    28    1
    30     8     9    1
    31     9    10    1
    32    14    15   am
    33    15    16    2
    34    15    11    1
    35     6     1   ar
    36    35    30   ar
    37    28    25    1
    38    10     4    1
    39    17    18    1
@<TRIPOS>MOLECULE
*****
 35 39 0 0 0
SMALL
GASTEIGER

@<TRIPOS>ATOM
      1 C         140.8215  138.5460  162.9710 C.ar    1  UNL1        0.0535
      2 C         139.6019  137.7201  163.2543 C.ar    1  UNL1        0.0146
      3 C         138.8743  137.8790  164.5563 C.ar    1  UNL1       -0.0033
      4 C         139.3664  138.8639  165.5750 C.ar    1  UNL1       -0.0260
      5 C         140.5860  139.6899  165.2918 C.ar    1  UNL1       -0.0236
      6 C         141.3136  139.5309  163.9897 C.ar    1  UNL1        0.0104
      7 C         141.0781  140.6748  166.3105 C.3     1  UNL1        0.0410
      8 C         140.3505  140.8338  167.6125 C.3     1  UNL1        0.0621
      9 C         139.1308  140.0078  167.8959 C.3     1  UNL1        0.0210
     10 C         138.6388  139.0229  166.8771 C.3     1  UNL1        0.0274
     11 C         142.0951  138.4646  159.3053 C.3     1  UNL1        0.1532
     12 C         143.2426  137.8203  160.0252 C.3     1  UNL1        0.0486
     13 C         142.9052  137.7724  161.4860 C.3     1  UNL1        0.1002
     14 N         141.5491  138.3871  161.6689 N.am    1  UNL1       -0.2575
     15 C         141.0485  138.8149  160.3212 C.2     1  UNL1        0.2452
     16 O         139.7324  139.4767  160.0388 O.2     1  UNL1       -0.2730
     17 N         142.0093  138.7147  157.8288 N.3     1  UNL1       -0.1758
     18 H         141.0726  139.0740  157.6450 H       1  UNL1        0.1489
     19 S         142.2390  137.5902  156.8631 S.O2    1  UNL1        0.0411
     20 O         140.8153  137.1507  157.0362 O.2     1  UNL1       -0.1575
     21 O         143.6627  138.0297  156.6899 O.2     1  UNL1       -0.1575
     22 C         142.4687  136.4657  155.8973 C.3     1  UNL1        0.1688
     23 C         143.4912  134.4414  157.1650 C.3     1  UNL1        0.0019
     24 C         143.6026  135.5086  156.1166 C.3     1  UNL1        0.0270
     25 N         140.8426  141.8187  168.6313 N.3     1  UNL1       -0.2735
     26 C         140.5107  143.2395  168.9797 C.3     1  UNL1        0.0735
     27 C         141.5384  143.2115  170.0720 C.3     1  UNL1        0.0346
     28 C         141.8703  141.7909  169.7235 C.3     1  UNL1        0.0735
     29 C         142.2977  141.5007  166.0272 C.3     1  UNL1        0.0320
     30 C         142.1740  142.7805  165.2546 C.ar    1  UNL1       -0.0218
     31 C         143.4056  143.4834  164.7656 C.ar    1  UNL1       -0.0043
     32 C         143.2819  144.7632  163.9930 C.ar    1  UNL1       -0.0003
     33 C         141.9266  145.3400  163.7093 C.ar    1  UNL1       -0.0000
     34 C         140.6950  144.6370  164.1982 C.ar    1  UNL1       -0.0003
     35 C         140.8187  143.3573  164.9709 C.ar    1  UNL1       -0.0043
@<TRIPOS>BOND
     1    23    24    1
     2    24    22    1
     3    22    19    1
     4    19    20    2
     5    19    21    2
     6    19    17    1
     7    11    17    1
     8    11    12    1
     9    12    13    1
    10    13    14    1
    11    14     1    1
    12     1     2   ar
    13     2     3   ar
    14     3     4   ar
    15     4     5   ar
    16     5     6   ar
    17     5     7    1
    18     7    29    1
    19    29    30    1
    20    30    31   ar
    21    31    32   ar
    22    32    33   ar
    23    33    34   ar
    24    34    35   ar
    25     7     8    1
    26     8    25    1
    27    25    26    1
    28    26    27    1
    29    27    28    1
    30     8     9    1
    31     9    10    1
    32    14    15   am
    33    15    16    2
    34    15    11    1
    35     6     1   ar
    36    35    30   ar
    37    28    25    1
    38    10     4    1
    39    17    18    1
@<TRIPOS>MOLECULE
*****
 35 39 0 0 0
SMALL
GASTEIGER

@<TRIPOS>ATOM
      1 C         143.2781  141.2258  162.6511 C.ar    1  UNL1        0.0535
      2 C         144.0679  139.9639  162.4676 C.ar    1  UNL1        0.0146
      3 C         144.2450  139.0162  163.6168 C.ar    1  UNL1       -0.0033
      4 C         143.6324  139.3306  164.9494 C.ar    1  UNL1       -0.0260
      5 C         142.8427  140.5926  165.1329 C.ar    1  UNL1       -0.0236
      6 C         142.6656  141.5402  163.9838 C.ar    1  UNL1        0.0104
      7 C         142.2301  140.9069  166.4655 C.3     1  UNL1        0.0410
      8 C         142.4072  139.9593  167.6147 C.3     1  UNL1        0.0621
      9 C         143.1969  138.6972  167.4312 C.3     1  UNL1        0.0210
     10 C         143.8095  138.3829  166.0986 C.3     1  UNL1        0.0274
     11 C         142.4157  144.0823  160.1686 C.3     1  UNL1        0.1532
     12 C         143.2411  143.1814  159.2984 C.3     1  UNL1        0.0486
     13 C         143.6646  142.0017  160.1225 C.3     1  UNL1        0.1002
     14 N         143.1010  142.1735  161.5019 N.am    1  UNL1       -0.2575
     15 C         142.3292  143.4594  161.5304 C.2     1  UNL1        0.2452
     16 O         141.5990  144.0234  162.7131 O.2     1  UNL1       -0.2730
     17 N         141.7873  145.3785  159.7504 N.3     1  UNL1       -0.1758
     18 H         141.1359  145.6420  160.4898 H       1  UNL1        0.1489
     19 S         141.0318  145.4629  158.4574 S.O2    1  UNL1        0.0411
     20 O         142.2063  146.1397  157.8152 O.2     1  UNL1       -0.1575
     21 O         139.8572  144.7861  159.0995 O.2     1  UNL1       -0.1575
     22 C         140.2762  145.5473  157.1643 C.3     1  UNL1        0.1688
     23 C         139.0036  146.9622  155.3955 C.3     1  UNL1        0.0019
     24 C         139.6585  146.8467  156.7401 C.3     1  UNL1        0.0270
     25 N         141.7946  140.2737  168.9473 N.3     1  UNL1       -0.2735
     26 C         140.4383  140.0898  169.5611 C.3     1  UNL1        0.0735
     27 C         140.9283  140.7182  170.8319 C.3     1  UNL1        0.0346
     28 C         142.2845  140.9021  170.2182 C.3     1  UNL1        0.0735
     29 C         141.4404  142.1689  166.6490 C.3     1  UNL1        0.0320
     30 C         140.1560  142.3656  165.8996 C.ar    1  UNL1       -0.0218
     31 C         139.3462  141.1767  165.4743 C.ar    1  UNL1       -0.0043
     32 C         138.0618  141.3734  164.7248 C.ar    1  UNL1       -0.0003
     33 C         137.5872  142.7590  164.4007 C.ar    1  UNL1       -0.0000
     34 C         138.3970  143.9478  164.8260 C.ar    1  UNL1       -0.0003
     35 C         139.6814  143.7511  165.5754 C.ar    1  UNL1       -0.0043
@<TRIPOS>BOND
     1    23    24    1
     2    24    22    1
     3    22    19    1
     4    19    20    2
     5    19    21    2
     6    19    17    1
     7    11    17    1
     8    11    12    1
     9    12    13    1
    10    13    14    1
    11    14     1    1
    12     1     2   ar
    13     2     3   ar
    14     3     4   ar
    15     4     5   ar
    16     5     6   ar
    17     5     7    1
    18     7    29    1
    19    29    30    1
    20    30    31   ar
    21    31    32   ar
    22    32    33   ar
    23    33    34   ar
    24    34    35   ar
    25     7     8    1
    26     8    25    1
    27    25    26    1
    28    26    27    1
    29    27    28    1
    30     8     9    1
    31     9    10    1
    32    14    15   am
    33    15    16    2
    34    15    11    1
    35     6     1   ar
    36    35    30   ar
    37    28    25    1
    38    10     4    1
    39    17    18    1
@<TRIPOS>MOLECULE
*****
 35 39 0 0 0
SMALL
GASTEIGER

@<TRIPOS>ATOM
      1 C         140.8412  138.5001  163.1257 C.ar    1  UNL1        0.0535
      2 C         139.6324  137.6611  163.4164 C.ar    1  UNL1        0.0146
      3 C         138.8959  137.8305  164.7121 C.ar    1  UNL1       -0.0033
      4 C         139.3683  138.8390  165.7170 C.ar    1  UNL1       -0.0260
      5 C         140.5772  139.6780  165.4263 C.ar    1  UNL1       -0.0236
      6 C         141.3137  139.5086  164.1306 C.ar    1  UNL1        0.0104
      7 C         141.0496  140.6865  166.4312 C.3     1  UNL1        0.0410
      8 C         140.3131  140.8559  167.7269 C.3     1  UNL1        0.0621
      9 C         139.1042  140.0169  168.0177 C.3     1  UNL1        0.0210
     10 C         138.6318  139.0084  167.0128 C.3     1  UNL1        0.0274
     11 C         142.0800  138.2161  159.4582 C.3     1  UNL1        0.1532
     12 C         143.3424  137.9240  160.2139 C.3     1  UNL1        0.0486
     13 C         143.0320  137.9948  161.6797 C.3     1  UNL1        0.1002
     14 N         141.5778  138.3307  161.8299 N.am    1  UNL1       -0.2575
     15 C         140.9895  138.4675  160.4569 C.2     1  UNL1        0.2452
     16 O         139.5613  138.7977  160.1385 O.2     1  UNL1       -0.2730
     17 N         141.9339  138.2508  157.9657 N.3     1  UNL1       -0.1758
     18 H         142.2002  137.3280  157.6223 H       1  UNL1        0.1489
     19 S         142.7065  139.2523  157.1595 S.O2    1  UNL1        0.0411
     20 O         141.7624  140.3327  157.5970 O.2     1  UNL1       -0.1575
     21 O         143.6506  138.1719  156.7221 O.2     1  UNL1       -0.1575
     22 C         143.4791  140.2539  156.3534 C.3     1  UNL1        0.1688
     23 C         145.9235  140.7809  155.6478 C.3     1  UNL1        0.0019
     24 C         144.8958  140.5810  156.7221 C.3     1  UNL1        0.0270
     25 N         140.7856  141.8643  168.7318 N.3     1  UNL1       -0.2735
     26 C         141.7663  141.8516  169.8668 C.3     1  UNL1        0.0735
     27 C         141.4537  143.2905  170.1529 C.3     1  UNL1        0.0346
     28 C         140.4730  143.3032  169.0180 C.3     1  UNL1        0.0735
     29 C         142.2585  141.5255  166.1404 C.3     1  UNL1        0.0320
     30 C         142.1229  142.7814  165.3315 C.ar    1  UNL1       -0.0218
     31 C         140.7677  143.3808  165.0985 C.ar    1  UNL1       -0.0043
     32 C         140.6321  144.6366  164.2896 C.ar    1  UNL1       -0.0003
     33 C         141.8517  145.2931  163.7136 C.ar    1  UNL1       -0.0000
     34 C         143.2068  144.6938  163.9466 C.ar    1  UNL1       -0.0003
     35 C         143.3424  143.4379  164.7555 C.ar    1  UNL1       -0.0043
@<TRIPOS>BOND
     1    23    24    1
     2    24    22    1
     3    22    19    1
     4    19    20    2
     5    19    21    2
     6    19    17    1
     7    11    17    1
     8    11    12    1
     9    12    13    1
    10    13    14    1
    11    14     1    1
    12     1     2   ar
    13     2     3   ar
    14     3     4   ar
    15     4     5   ar
    16     5     6   ar
    17     5     7    1
    18     7    29    1
    19    29    30    1
    20    30    31   ar
    21    31    32   ar
    22    32    33   ar
    23    33    34   ar
    24    34    35   ar
    25     7     8    1
    26     8    25    1
    27    25    26    1
    28    26    27    1
    29    27    28    1
    30     8     9    1
    31     9    10    1
    32    14    15   am
    33    15    16    2
    34    15    11    1
    35     6     1   ar
    36    35    30   ar
    37    28    25    1
    38    10     4    1
    39    17    18    1
@<TRIPOS>MOLECULE
*****
 35 39 0 0 0
SMALL
GASTEIGER

@<TRIPOS>ATOM
      1 C         139.6506  141.6602  162.4842 C.ar    1  UNL1        0.0535
      2 C         138.4090  140.8264  162.3704 C.ar    1  UNL1        0.0146
      3 C         137.9062  140.0635  163.5600 C.ar    1  UNL1       -0.0033
      4 C         138.6451  140.1344  164.8634 C.ar    1  UNL1       -0.0260
      5 C         139.8868  140.9682  164.9773 C.ar    1  UNL1       -0.0236
      6 C         140.3895  141.7311  163.7877 C.ar    1  UNL1        0.0104
      7 C         140.6257  141.0391  166.2807 C.3     1  UNL1        0.0410
      8 C         140.1229  140.2762  167.4703 C.3     1  UNL1        0.0621
      9 C         138.8812  139.4423  167.3565 C.3     1  UNL1        0.0210
     10 C         138.1423  139.3714  166.0531 C.3     1  UNL1        0.0274
     11 C         140.5223  144.1923  159.6746 C.3     1  UNL1        0.1532
     12 C         141.3321  143.0019  159.2534 C.3     1  UNL1        0.0486
     13 C         141.1041  141.9085  160.2546 C.3     1  UNL1        0.1002
     14 N         140.1534  142.4231  161.2946 N.am    1  UNL1       -0.2575
     15 C         139.7939  143.8346  160.9361 C.2     1  UNL1        0.2452
     16 O         138.8684  144.7309  161.7042 O.2     1  UNL1       -0.2730
     17 N         140.4531  145.5092  158.9597 N.3     1  UNL1       -0.1758
     18 H         139.4728  145.7910  158.9558 H       1  UNL1        0.1489
     19 S         140.9416  145.6217  157.5459 S.O2    1  UNL1        0.0411
     20 O         139.6332  145.0806  157.0508 O.2     1  UNL1       -0.1575
     21 O         142.2500  146.1628  158.0411 O.2     1  UNL1       -0.1575
     22 C         141.4301  145.7342  156.1322 C.3     1  UNL1        0.1688
     23 C         140.7414  146.2889  153.6892 C.3     1  UNL1        0.0019
     24 C         140.7018  146.6080  155.1544 C.3     1  UNL1        0.0270
     25 N         140.8618  140.3471  168.7738 N.3     1  UNL1       -0.2735
     26 C         140.7356  141.1707  170.0212 C.3     1  UNL1        0.0735
     27 C         141.9068  140.4474  170.6171 C.3     1  UNL1        0.0346
     28 C         142.0330  139.6239  169.3698 C.3     1  UNL1        0.0735
     29 C         141.8673  141.8729  166.3946 C.3     1  UNL1        0.0320
     30 C         143.0832  141.5214  165.5896 C.ar    1  UNL1       -0.0218
     31 C         143.4390  140.0827  165.3576 C.ar    1  UNL1       -0.0043
     32 C         144.6549  139.7312  164.5527 C.ar    1  UNL1       -0.0003
     33 C         145.5151  140.8184  163.9797 C.ar    1  UNL1       -0.0000
     34 C         145.1594  142.2570  164.2117 C.ar    1  UNL1       -0.0003
     35 C         143.9434  142.6085  165.0167 C.ar    1  UNL1       -0.0043
@<TRIPOS>BOND
     1    23    24    1
     2    24    22    1
     3    22    19    1
     4    19    20    2
     5    19    21    2
     6    19    17    1
     7    11    17    1
     8    11    12    1
     9    12    13    1
    10    13    14    1
    11    14     1    1
    12     1     2   ar
    13     2     3   ar
    14     3     4   ar
    15     4     5   ar
    16     5     6   ar
    17     5     7    1
    18     7    29    1
    19    29    30    1
    20    30    31   ar
    21    31    32   ar
    22    32    33   ar
    23    33    34   ar
    24    34    35   ar
    25     7     8    1
    26     8    25    1
    27    25    26    1
    28    26    27    1
    29    27    28    1
    30     8     9    1
    31     9    10    1
    32    14    15   am
    33    15    16    2
    34    15    11    1
    35     6     1   ar
    36    35    30   ar
    37    28    25    1
    38    10     4    1
    39    17    18    1
@<TRIPOS>MOLECULE
*****
 35 39 0 0 0
SMALL
GASTEIGER

@<TRIPOS>ATOM
      1 C         142.2042  144.0650  162.5618 C.ar    1  UNL1        0.0535
      2 C         143.6262  144.4595  162.8308 C.ar    1  UNL1        0.0146
      3 C         144.2599  144.1275  164.1491 C.ar    1  UNL1       -0.0033
      4 C         143.4718  143.4009  165.1984 C.ar    1  UNL1       -0.0260
      5 C         142.0498  143.0064  164.9293 C.ar    1  UNL1       -0.0236
      6 C         141.4161  143.3385  163.6110 C.ar    1  UNL1        0.0104
      7 C         141.2617  142.2799  165.9786 C.3     1  UNL1        0.0410
      8 C         141.8954  141.9479  167.2969 C.3     1  UNL1        0.0621
      9 C         143.3175  142.3423  167.5661 C.3     1  UNL1        0.0210
     10 C         144.1056  143.0689  166.5168 C.3     1  UNL1        0.0274
     11 C         141.0757  144.4486  158.8678 C.3     1  UNL1        0.1532
     12 C         140.1143  145.3676  159.5615 C.3     1  UNL1        0.0486
     13 C         140.4201  145.3358  161.0297 C.3     1  UNL1        0.1002
     14 N         141.5704  144.3971  161.2434 N.am    1  UNL1       -0.2575
     15 C         141.9756  143.8488  159.9073 C.2     1  UNL1        0.2452
     16 O         143.0857  142.8721  159.6549 O.2     1  UNL1       -0.2730
     17 N         141.1280  144.1770  157.3935 N.3     1  UNL1       -0.1758
     18 H         142.0652  143.8290  157.1913 H       1  UNL1        0.1489
     19 S         140.8567  145.2829  156.4172 S.O2    1  UNL1        0.0411
     20 O         139.4990  144.7073  156.1424 O.2     1  UNL1       -0.1575
     21 O         142.2143  145.8585  156.6919 O.2     1  UNL1       -0.1575
     22 C         140.5853  146.3888  155.4408 C.3     1  UNL1        0.1688
     23 C         138.9776  148.4264  155.3243 C.3     1  UNL1        0.0019
     24 C         139.1984  146.9429  155.3016 C.3     1  UNL1        0.0270
     25 N         141.1073  141.2213  168.3462 N.3     1  UNL1       -0.2735
     26 C         140.0057  141.5945  169.2935 C.3     1  UNL1        0.0735
     27 C         139.9927  140.1939  169.8301 C.3     1  UNL1        0.0346
     28 C         141.0941  139.8207  168.8828 C.3     1  UNL1        0.0735
     29 C         139.8397  141.8854  165.7095 C.3     1  UNL1        0.0320
     30 C         139.4820  140.4386  165.5399 C.ar    1  UNL1       -0.0218
     31 C         138.4198  139.8227  166.4016 C.ar    1  UNL1       -0.0043
     32 C         138.0621  138.3758  166.2320 C.ar    1  UNL1       -0.0003
     33 C         138.7666  137.5450  165.2007 C.ar    1  UNL1       -0.0000
     34 C         139.8288  138.1609  164.3392 C.ar    1  UNL1       -0.0003
     35 C         140.1865  139.6078  164.5088 C.ar    1  UNL1       -0.0043
@<TRIPOS>BOND
     1    23    24    1
     2    24    22    1
     3    22    19    1
     4    19    20    2
     5    19    21    2
     6    19    17    1
     7    11    17    1
     8    11    12    1
     9    12    13    1
    10    13    14    1
    11    14     1    1
    12     1     2   ar
    13     2     3   ar
    14     3     4   ar
    15     4     5   ar
    16     5     6   ar
    17     5     7    1
    18     7    29    1
    19    29    30    1
    20    30    31   ar
    21    31    32   ar
    22    32    33   ar
    23    33    34   ar
    24    34    35   ar
    25     7     8    1
    26     8    25    1
    27    25    26    1
    28    26    27    1
    29    27    28    1
    30     8     9    1
    31     9    10    1
    32    14    15   am
    33    15    16    2
    34    15    11    1
    35     6     1   ar
    36    35    30   ar
    37    28    25    1
    38    10     4    1
    39    17    18    1
@<TRIPOS>MOLECULE
*****
 35 39 0 0 0
SMALL
GASTEIGER

@<TRIPOS>ATOM
      1 C         142.7692  143.3466  163.2224 C.ar    1  UNL1        0.0535
      2 C         144.1331  143.6444  163.7710 C.ar    1  UNL1        0.0146
      3 C         144.4321  143.3864  165.2181 C.ar    1  UNL1       -0.0033
      4 C         143.3672  142.8307  166.1165 C.ar    1  UNL1       -0.0260
      5 C         142.0033  142.5329  165.5678 C.ar    1  UNL1       -0.0236
      6 C         141.7043  142.7909  164.1208 C.ar    1  UNL1        0.0104
      7 C         140.9383  141.9772  166.4662 C.3     1  UNL1        0.0410
      8 C         141.2373  141.7192  167.9133 C.3     1  UNL1        0.0621
      9 C         142.6013  142.0170  168.4620 C.3     1  UNL1        0.0210
     10 C         143.6662  142.5727  167.5636 C.3     1  UNL1        0.0274
     11 C         141.5627  144.5714  159.7424 C.3     1  UNL1        0.1532
     12 C         142.4574  143.4317  159.3544 C.3     1  UNL1        0.0486
     13 C         143.0182  142.8342  160.6107 C.3     1  UNL1        0.1002
     14 N         142.4702  143.6046  161.7752 N.am    1  UNL1       -0.2575
     15 C         141.5706  144.6783  161.2386 C.2     1  UNL1        0.2452
     16 O         140.8121  145.6825  162.0548 O.2     1  UNL1       -0.2730
     17 N         140.7949  145.4500  158.7998 N.3     1  UNL1       -0.1758
     18 H         139.8114  145.1978  158.8973 H       1  UNL1        0.1489
     19 S         141.1045  145.4266  157.3323 S.O2    1  UNL1        0.0411
     20 O         139.8699  144.6115  157.0848 O.2     1  UNL1       -0.1575
     21 O         142.3391  146.2417  157.5798 O.2     1  UNL1       -0.1575
     22 C         141.4141  145.4032  155.8648 C.3     1  UNL1        0.1688
     23 C         143.2969  145.0448  154.1107 C.3     1  UNL1        0.0019
     24 C         142.5837  144.6128  155.3576 C.3     1  UNL1        0.0270
     25 N         140.1724  141.1635  168.8116 N.3     1  UNL1       -0.2735
     26 C         139.3246  139.9259  168.8122 C.3     1  UNL1        0.0735
     27 C         138.6664  140.3775  170.0821 C.3     1  UNL1        0.0346
     28 C         139.5141  141.6149  170.0816 C.3     1  UNL1        0.0735
     29 C         139.5745  141.6794  165.9175 C.3     1  UNL1        0.0320
     30 C         139.3459  140.4362  165.1099 C.ar    1  UNL1       -0.0218
     31 C         140.0178  139.1535  165.5013 C.ar    1  UNL1       -0.0043
     32 C         139.7893  137.9103  164.6937 C.ar    1  UNL1       -0.0003
     33 C         138.8888  137.9499  163.4946 C.ar    1  UNL1       -0.0000
     34 C         138.2170  139.2326  163.1033 C.ar    1  UNL1       -0.0003
     35 C         138.4455  140.4758  163.9109 C.ar    1  UNL1       -0.0043
@<TRIPOS>BOND
     1    23    24    1
     2    24    22    1
     3    22    19    1
     4    19    20    2
     5    19    21    2
     6    19    17    1
     7    11    17    1
     8    11    12    1
     9    12    13    1
    10    13    14    1
    11    14     1    1
    12     1     2   ar
    13     2     3   ar
    14     3     4   ar
    15     4     5   ar
    16     5     6   ar
    17     5     7    1
    18     7    29    1
    19    29    30    1
    20    30    31   ar
    21    31    32   ar
    22    32    33   ar
    23    33    34   ar
    24    34    35   ar
    25     7     8    1
    26     8    25    1
    27    25    26    1
    28    26    27    1
    29    27    28    1
    30     8     9    1
    31     9    10    1
    32    14    15   am
    33    15    16    2
    34    15    11    1
    35     6     1   ar
    36    35    30   ar
    37    28    25    1
    38    10     4    1
    39    17    18    1
@<TRIPOS>MOLECULE
*****
 35 39 0 0 0
SMALL
GASTEIGER

@<TRIPOS>ATOM
      1 C         141.8720  138.9149  162.4453 C.ar    1  UNL1        0.0535
      2 C         143.2873  138.5084  162.7310 C.ar    1  UNL1        0.0146
      3 C         143.8299  138.6106  164.1257 C.ar    1  UNL1       -0.0033
      4 C         142.9573  139.1192  165.2346 C.ar    1  UNL1       -0.0260
      5 C         141.5420  139.5257  164.9489 C.ar    1  UNL1       -0.0236
      6 C         140.9994  139.4235  163.5542 C.ar    1  UNL1        0.0104
      7 C         140.6693  140.0343  166.0578 C.3     1  UNL1        0.0410
      8 C         141.2119  140.1364  167.4525 C.3     1  UNL1        0.0621
      9 C         142.6273  139.7299  167.7382 C.3     1  UNL1        0.0210
     10 C         143.5000  139.2213  166.6293 C.3     1  UNL1        0.0274
     11 C         141.1933  138.6254  158.6346 C.3     1  UNL1        0.1532
     12 C         139.7950  138.6859  159.1743 C.3     1  UNL1        0.0486
     13 C         139.8791  138.8017  160.6674 C.3     1  UNL1        0.1002
     14 N         141.3293  138.8128  161.0506 N.am    1  UNL1       -0.2575
     15 C         142.1415  138.7038  159.7943 C.2     1  UNL1        0.2452
     16 O         143.6390  138.6778  159.7119 O.2     1  UNL1       -0.2730
     17 N         141.5762  138.5072  157.1891 N.3     1  UNL1       -0.1758
     18 H         140.7700  138.8145  156.6449 H       1  UNL1        0.1489
     19 S         141.9952  137.1797  156.6303 S.O2    1  UNL1        0.0411
     20 O         140.5554  136.7785  156.5038 O.2     1  UNL1       -0.1575
     21 O         143.4350  137.5809  156.7569 O.2     1  UNL1       -0.1575
     22 C         142.4142  135.8522  156.0716 C.3     1  UNL1        0.1688
     23 C         143.0219  133.4676  156.9049 C.3     1  UNL1        0.0019
     24 C         143.2930  134.9427  156.8781 C.3     1  UNL1        0.0270
     25 N         140.3392  140.6450  168.5614 N.3     1  UNL1       -0.2735
     26 C         140.2475  141.9260  169.3365 C.3     1  UNL1        0.0735
     27 C         139.1051  141.3643  170.1297 C.3     1  UNL1        0.0346
     28 C         139.1968  140.0834  169.3547 C.3     1  UNL1        0.0735
     29 C         139.2540  140.4407  165.7721 C.3     1  UNL1        0.0320
     30 C         138.9638  141.7977  165.2025 C.ar    1  UNL1       -0.0218
     31 C         139.7150  142.9966  165.7009 C.ar    1  UNL1       -0.0043
     32 C         139.4248  144.3536  165.1313 C.ar    1  UNL1       -0.0003
     33 C         138.3834  144.5116  164.0633 C.ar    1  UNL1       -0.0000
     34 C         137.6323  143.3127  163.5649 C.ar    1  UNL1       -0.0003
     35 C         137.9224  141.9557  164.1346 C.ar    1  UNL1       -0.0043
@<TRIPOS>BOND
     1    23    24    1
     2    24    22    1
     3    22    19    1
     4    19    20    2
     5    19    21    2
     6    19    17    1
     7    11    17    1
     8    11    12    1
     9    12    13    1
    10    13    14    1
    11    14     1    1
    12     1     2   ar
    13     2     3   ar
    14     3     4   ar
    15     4     5   ar
    16     5     6   ar
    17     5     7    1
    18     7    29    1
    19    29    30    1
    20    30    31   ar
    21    31    32   ar
    22    32    33   ar
    23    33    34   ar
    24    34    35   ar
    25     7     8    1
    26     8    25    1
    27    25    26    1
    28    26    27    1
    29    27    28    1
    30     8     9    1
    31     9    10    1
    32    14    15   am
    33    15    16    2
    34    15    11    1
    35     6     1   ar
    36    35    30   ar
    37    28    25    1
    38    10     4    1
    39    17    18    1
@<TRIPOS>MOLECULE
*****
 35 39 0 0 0
SMALL
GASTEIGER

@<TRIPOS>ATOM
      1 C         139.9740  140.3743  167.6448 C.ar    1  UNL1        0.0535
      2 C         138.8307  139.4531  167.3377 C.ar    1  UNL1        0.0146
      3 C         138.0636  139.6106  166.0584 C.ar    1  UNL1       -0.0033
      4 C         138.4396  140.6892  165.0863 C.ar    1  UNL1       -0.0260
      5 C         139.5829  141.6104  165.3934 C.ar    1  UNL1       -0.0236
      6 C         140.3500  141.4530  166.6727 C.ar    1  UNL1        0.0104
      7 C         139.9589  142.6891  164.4213 C.3     1  UNL1        0.0410
      8 C         139.1917  142.8466  163.1420 C.3     1  UNL1        0.0621
      9 C         138.0485  141.9253  162.8348 C.3     1  UNL1        0.0210
     10 C         137.6724  140.8467  163.8069 C.3     1  UNL1        0.0274
     11 C         142.5017  139.6922  170.5103 C.3     1  UNL1        0.1532
     12 C         141.3418  140.2571  171.2754 C.3     1  UNL1        0.0486
     13 C         140.2537  140.5814  170.2951 C.3     1  UNL1        0.1002
     14 N         140.7412  140.2169  168.9242 N.am    1  UNL1       -0.2575
     15 C         142.1305  139.6674  169.0571 C.2     1  UNL1        0.2452
     16 O         142.9967  139.1788  167.9342 O.2     1  UNL1       -0.2730
     17 N         143.8042  139.2328  171.0955 N.3     1  UNL1       -0.1758
     18 H         144.5443  139.6735  170.5491 H       1  UNL1        0.1489
     19 S         144.1242  137.7686  171.1564 S.O2    1  UNL1        0.0411
     20 O         142.8593  137.4612  170.4110 O.2     1  UNL1       -0.1575
     21 O         145.3891  138.0760  171.9017 O.2     1  UNL1       -0.1575
     22 C         144.4442  136.3044  171.2172 C.3     1  UNL1        0.1688
     23 C         145.8607  134.7491  172.7419 C.3     1  UNL1        0.0019
     24 C         145.7801  135.8492  171.7253 C.3     1  UNL1        0.0270
     25 N         139.5678  143.9252  162.1698 N.3     1  UNL1       -0.2735
     26 C         140.1322  143.9511  160.7802 C.3     1  UNL1        0.0735
     27 C         140.0996  145.4507  160.7950 C.3     1  UNL1        0.0346
     28 C         139.5353  145.4248  162.1845 C.3     1  UNL1        0.0735
     29 C         141.1021  143.6103  164.7284 C.3     1  UNL1        0.0320
     30 C         142.4804  143.2862  164.2331 C.ar    1  UNL1       -0.0218
     31 C         143.2666  142.1805  164.8730 C.ar    1  UNL1       -0.0043
     32 C         144.6448  141.8564  164.3778 C.ar    1  UNL1       -0.0003
     33 C         145.2370  142.6380  163.2426 C.ar    1  UNL1       -0.0000
     34 C         144.4508  143.7437  162.6028 C.ar    1  UNL1       -0.0003
     35 C         143.0726  144.0678  163.0981 C.ar    1  UNL1       -0.0043
@<TRIPOS>BOND
     1    23    24    1
     2    24    22    1
     3    22    19    1
     4    19    20    2
     5    19    21    2
     6    19    17    1
     7    11    17    1
     8    11    12    1
     9    12    13    1
    10    13    14    1
    11    14     1    1
    12     1     2   ar
    13     2     3   ar
    14     3     4   ar
    15     4     5   ar
    16     5     6   ar
    17     5     7    1
    18     7    29    1
    19    29    30    1
    20    30    31   ar
    21    31    32   ar
    22    32    33   ar
    23    33    34   ar
    24    34    35   ar
    25     7     8    1
    26     8    25    1
    27    25    26    1
    28    26    27    1
    29    27    28    1
    30     8     9    1
    31     9    10    1
    32    14    15   am
    33    15    16    2
    34    15    11    1
    35     6     1   ar
    36    35    30   ar
    37    28    25    1
    38    10     4    1
    39    17    18    1
