@<TRIPOS>MOLECULE
*****
 29 32 0 0 0
SMALL
GASTEIGER

@<TRIPOS>ATOM
      1 C         139.4201  141.6936  163.5201 C.ar    1  UNL1        0.0071
      2 C         140.2045  140.8361  162.5717 C.ar    1  UNL1        0.0020
      3 C         139.9171  140.8883  161.1005 C.ar    1  UNL1        0.0177
      4 C         138.8452  141.7981  160.5775 C.ar    1  UNL1        0.0677
      5 C         138.0608  142.6556  161.5258 C.ar    1  UNL1        0.0290
      6 C         138.3483  142.6034  162.9972 C.ar    1  UNL1        0.0588
      7 CL        137.5639  143.4609  163.9455 Cl      1  UNL1       -0.0822
      8 C         140.3947  141.2248  169.3967 C.2     1  UNL1        0.1571
      9 N         139.6166  139.9706  169.6641 N.2     1  UNL1       -0.1436
     10 N         139.0234  139.5077  168.3665 N.2     1  UNL1       -0.1519
     11 C         139.4350  140.4757  167.2971 C.2     1  UNL1        0.0865
     12 C         139.1475  140.5279  165.8259 C.3     1  UNL1        0.0740
     13 C         139.7076  141.6414  164.9914 C.2     1  UNL1       -0.0153
     14 C         140.5551  142.7026  165.6281 C.2     1  UNL1       -0.0038
     15 C         140.8426  142.6504  167.0993 C.2     1  UNL1        0.0026
     16 C         140.2825  141.5369  167.9339 C.2     1  UNL1        0.0395
     17 C         143.1890  143.5098  171.0462 C.3     1  UNL1        0.1110
     18 N         142.4316  142.7085  170.0293 N.am    1  UNL1       -0.2979
     19 C         141.1522  142.0261  170.4137 C.2     1  UNL1        0.2655
     20 O         140.6303  142.1452  171.8148 O.2     1  UNL1       -0.2684
     21 H         142.7742  142.6303  169.1097 H       1  UNL1        0.1498
     22 N         138.5578  141.8503  159.1063 N.ar    1  UNL1       -0.2734
     23 C         137.9022  140.6839  158.4283 C.ar    1  UNL1        0.0829
     24 C         137.6148  140.7361  156.9570 C.ar    1  UNL1        0.0189
     25 C         137.9830  141.9548  156.1637 C.ar    1  UNL1        0.0020
     26 C         138.6386  143.1212  156.8417 C.ar    1  UNL1        0.0347
     27 C         139.0067  144.3398  156.0484 C.3     1  UNL1        0.0360
     28 C         138.9260  143.0689  158.3130 C.ar    1  UNL1        0.2607
     29 O         139.5816  144.2354  158.9910 O.2     1  UNL1       -0.2670
@<TRIPOS>BOND
     1    17    18    1
     2    18    19   am
     3    19    20    2
     4    19     8    1
     5     8     9    2
     6     9    10    1
     7    10    11    2
     8    11    12    1
     9    12    13    1
    10    13     1    1
    11     1     2   ar
    12     2     3   ar
    13     3     4   ar
    14     4    22    1
    15    22    23   ar
    16    23    24   ar
    17    24    25   ar
    18    25    26   ar
    19    26    27    1
    20    26    28   ar
    21    28    29    2
    22     4     5   ar
    23     5     6   ar
    24     6     7    1
    25    13    14    2
    26    14    15    1
    27    15    16    2
    28    16     8    1
    29    16    11    1
    30     6     1   ar
    31    28    22   ar
    32    18    21    1
@<TRIPOS>MOLECULE
*****
 29 32 0 0 0
SMALL
GASTEIGER

@<TRIPOS>ATOM
      1 C         142.1579  139.5022  163.5960 C.ar    1  UNL1        0.0071
      2 C         143.0272  140.6437  164.0333 C.ar    1  UNL1        0.0020
      3 C         142.9717  141.1280  165.4519 C.ar    1  UNL1        0.0177
      4 C         142.0469  140.4708  166.4332 C.ar    1  UNL1        0.0677
      5 C         141.1775  139.3293  165.9958 C.ar    1  UNL1        0.0290
      6 C         141.2331  138.8450  164.5771 C.ar    1  UNL1        0.0588
      7 CL        140.3638  137.7036  164.1398 Cl      1  UNL1       -0.0822
      8 C         142.1198  137.7364  157.8876 C.2     1  UNL1        0.1571
      9 N         140.8856  138.4546  157.4282 N.2     1  UNL1       -0.1436
     10 N         140.3278  139.2115  158.5970 N.2     1  UNL1       -0.1519
     11 C         141.2171  138.9610  159.7787 C.2     1  UNL1        0.0865
     12 C         141.1615  139.4453  161.1972 C.3     1  UNL1        0.0740
     13 C         142.2135  139.0179  162.1773 C.2     1  UNL1       -0.0153
     14 C         143.3210  138.1062  161.7389 C.2     1  UNL1       -0.0038
     15 C         143.3766  137.6220  160.3204 C.2     1  UNL1        0.0026
     16 C         142.3247  138.0493  159.3402 C.2     1  UNL1        0.0395
     17 C         143.7190  134.4908  156.2571 C.3     1  UNL1        0.1110
     18 N         142.8435  135.3680  157.1020 N.am    1  UNL1       -0.2979
     19 C         142.9953  136.8592  157.0427 C.2     1  UNL1        0.2655
     20 O         144.0228  137.4730  156.1386 O.2     1  UNL1       -0.2684
     21 H         142.1691  134.9651  157.6954 H       1  UNL1        0.1498
     22 N         141.9913  140.9551  167.8517 N.ar    1  UNL1       -0.2734
     23 C         142.6851  140.1840  168.9352 C.ar    1  UNL1        0.0829
     24 C         142.6296  140.6683  170.3537 C.ar    1  UNL1        0.0189
     25 C         141.8803  141.9238  170.6889 C.ar    1  UNL1        0.0020
     26 C         141.1865  142.6949  169.6054 C.ar    1  UNL1        0.0347
     27 C         140.4372  143.9504  169.9404 C.3     1  UNL1        0.0360
     28 C         141.2420  142.2106  168.1868 C.ar    1  UNL1        0.2607
     29 O         140.5482  142.9817  167.1033 O.2     1  UNL1       -0.2670
@<TRIPOS>BOND
     1    17    18    1
     2    18    19   am
     3    19    20    2
     4    19     8    1
     5     8     9    2
     6     9    10    1
     7    10    11    2
     8    11    12    1
     9    12    13    1
    10    13     1    1
    11     1     2   ar
    12     2     3   ar
    13     3     4   ar
    14     4    22    1
    15    22    23   ar
    16    23    24   ar
    17    24    25   ar
    18    25    26   ar
    19    26    27    1
    20    26    28   ar
    21    28    29    2
    22     4     5   ar
    23     5     6   ar
    24     6     7    1
    25    13    14    2
    26    14    15    1
    27    15    16    2
    28    16     8    1
    29    16    11    1
    30     6     1   ar
    31    28    22   ar
    32    18    21    1
@<TRIPOS>MOLECULE
*****
 29 32 0 0 0
SMALL
GASTEIGER

@<TRIPOS>ATOM
      1 C         139.3142  141.1517  162.2749 C.ar    1  UNL1        0.0071
      2 C         140.1238  140.2809  161.3604 C.ar    1  UNL1        0.0020
      3 C         140.1339  140.5484  159.8845 C.ar    1  UNL1        0.0177
      4 C         139.3344  141.6866  159.3230 C.ar    1  UNL1        0.0677
      5 C         138.5248  142.5574  160.2375 C.ar    1  UNL1        0.0290
      6 C         138.5147  142.2899  161.7134 C.ar    1  UNL1        0.0588
      7 CL        137.7051  143.1607  162.6279 Cl      1  UNL1       -0.0822
      8 C         139.0483  139.8761  168.1064 C.2     1  UNL1        0.1571
      9 N         137.9677  138.8364  168.0700 N.2     1  UNL1       -0.1436
     10 N         137.5354  138.6670  166.6437 N.2     1  UNL1       -0.1519
     11 C         138.3488  139.6020  165.7986 C.2     1  UNL1        0.0865
     12 C         138.3589  139.8695  164.3227 C.3     1  UNL1        0.0740
     13 C         139.3040  140.8842  163.7508 C.2     1  UNL1       -0.0153
     14 C         140.2390  141.6315  164.6549 C.2     1  UNL1       -0.0038
     15 C         140.2289  141.3640  166.1308 C.2     1  UNL1        0.0026
     16 C         139.2838  140.3493  166.7026 C.2     1  UNL1        0.0395
     17 C         141.9414  140.5288  170.7435 C.3     1  UNL1        0.1110
     18 N         141.2226  140.0468  169.5183 N.am    1  UNL1       -0.2979
     19 C         139.7671  140.3581  169.3316 C.2     1  UNL1        0.2655
     20 O         139.0306  141.1513  170.3700 O.2     1  UNL1       -0.2684
     21 H         141.7060  139.5262  168.8368 H       1  UNL1        0.1498
     22 N         139.3446  141.9541  157.8471 N.ar    1  UNL1       -0.2734
     23 C         140.3172  142.9395  157.2701 C.ar    1  UNL1        0.0829
     24 C         140.3274  143.2070  155.7942 C.ar    1  UNL1        0.0189
     25 C         139.3649  142.4890  154.8952 C.ar    1  UNL1        0.0020
     26 C         138.3922  141.5035  155.4722 C.ar    1  UNL1        0.0347
     27 C         137.4298  140.7856  154.5733 C.3     1  UNL1        0.0360
     28 C         138.3821  141.2361  156.9482 C.ar    1  UNL1        0.2607
     29 O         137.4095  140.2507  157.5252 O.2     1  UNL1       -0.2670
@<TRIPOS>BOND
     1    17    18    1
     2    18    19   am
     3    19    20    2
     4    19     8    1
     5     8     9    2
     6     9    10    1
     7    10    11    2
     8    11    12    1
     9    12    13    1
    10    13     1    1
    11     1     2   ar
    12     2     3   ar
    13     3     4   ar
    14     4    22    1
    15    22    23   ar
    16    23    24   ar
    17    24    25   ar
    18    25    26   ar
    19    26    27    1
    20    26    28   ar
    21    28    29    2
    22     4     5   ar
    23     5     6   ar
    24     6     7    1
    25    13    14    2
    26    14    15    1
    27    15    16    2
    28    16     8    1
    29    16    11    1
    30     6     1   ar
    31    28    22   ar
    32    18    21    1
@<TRIPOS>MOLECULE
*****
 29 32 0 0 0
SMALL
GASTEIGER

@<TRIPOS>ATOM
      1 C         142.8477  141.4878  163.3363 C.ar    1  UNL1        0.0071
      2 C         141.5502  142.1589  163.6771 C.ar    1  UNL1        0.0020
      3 C         141.1029  142.2446  165.1062 C.ar    1  UNL1        0.0177
      4 C         141.9531  141.6592  166.1946 C.ar    1  UNL1        0.0677
      5 C         143.2506  140.9882  165.8538 C.ar    1  UNL1        0.0290
      6 C         143.6979  140.9025  164.4246 C.ar    1  UNL1        0.0588
      7 CL        144.9954  140.2315  164.0838 Cl      1  UNL1       -0.0822
      8 C         144.5204  140.8545  157.6349 C.2     1  UNL1        0.1571
      9 N         144.0563  139.4460  157.4095 N.2     1  UNL1       -0.1436
     10 N         143.4388  138.9519  158.6840 N.2     1  UNL1       -0.1519
     11 C         143.5212  140.0550  159.6971 C.2     1  UNL1        0.0865
     12 C         143.0739  140.1406  161.1263 C.3     1  UNL1        0.0740
     13 C         143.2951  141.4022  161.9070 C.2     1  UNL1       -0.0153
     14 C         143.9636  142.5780  161.2586 C.2     1  UNL1       -0.0038
     15 C         144.4109  142.4924  159.8295 C.2     1  UNL1        0.0026
     16 C         144.1897  141.2309  159.0487 C.2     1  UNL1        0.0395
     17 C         147.3650  142.5727  155.4654 C.3     1  UNL1        0.1110
     18 N         146.6889  141.6947  156.4764 N.am    1  UNL1       -0.2979
     19 C         145.1965  141.7325  156.6239 C.2     1  UNL1        0.2655
     20 O         144.3805  142.6482  155.7606 O.2     1  UNL1       -0.2684
     21 H         147.2245  141.0937  157.0430 H       1  UNL1        0.1498
     22 N         141.5057  141.7449  167.6238 N.ar    1  UNL1       -0.2734
     23 C         142.2625  142.5999  168.5966 C.ar    1  UNL1        0.0829
     24 C         141.8152  142.6856  170.0257 C.ar    1  UNL1        0.0189
     25 C         140.6110  141.9163  170.4821 C.ar    1  UNL1        0.0020
     26 C         139.8542  141.0614  169.5094 C.ar    1  UNL1        0.0347
     27 C         138.6501  140.2921  169.9657 C.3     1  UNL1        0.0360
     28 C         140.3016  140.9757  168.0801 C.ar    1  UNL1        0.2607
     29 O         139.5448  140.1207  167.1073 O.2     1  UNL1       -0.2670
@<TRIPOS>BOND
     1    17    18    1
     2    18    19   am
     3    19    20    2
     4    19     8    1
     5     8     9    2
     6     9    10    1
     7    10    11    2
     8    11    12    1
     9    12    13    1
    10    13     1    1
    11     1     2   ar
    12     2     3   ar
    13     3     4   ar
    14     4    22    1
    15    22    23   ar
    16    23    24   ar
    17    24    25   ar
    18    25    26   ar
    19    26    27    1
    20    26    28   ar
    21    28    29    2
    22     4     5   ar
    23     5     6   ar
    24     6     7    1
    25    13    14    2
    26    14    15    1
    27    15    16    2
    28    16     8    1
    29    16    11    1
    30     6     1   ar
    31    28    22   ar
    32    18    21    1
@<TRIPOS>MOLECULE
*****
 29 32 0 0 0
SMALL
GASTEIGER

@<TRIPOS>ATOM
      1 C         140.1819  142.6127  162.7456 C.ar    1  UNL1        0.0071
      2 C         140.9788  141.8869  161.7025 C.ar    1  UNL1        0.0020
      3 C         141.1411  142.4809  160.3347 C.ar    1  UNL1        0.0177
      4 C         140.5065  143.8007  160.0100 C.ar    1  UNL1        0.0677
      5 C         139.7096  144.5265  161.0532 C.ar    1  UNL1        0.0290
      6 C         139.5473  143.9325  162.4210 C.ar    1  UNL1        0.0588
      7 CL        138.7504  144.6583  163.4641 Cl      1  UNL1       -0.0822
      8 C         139.3328  140.0428  168.0728 C.2     1  UNL1        0.1571
      9 N         138.3419  138.9911  167.6705 N.2     1  UNL1       -0.1436
     10 N         138.0918  139.1290  166.1980 N.2     1  UNL1       -0.1519
     11 C         138.9282  140.2660  165.6902 C.2     1  UNL1        0.0865
     12 C         139.0904  140.8599  164.3224 C.3     1  UNL1        0.0740
     13 C         140.0196  142.0187  164.1134 C.2     1  UNL1       -0.0153
     14 C         140.7866  142.5835  165.2722 C.2     1  UNL1       -0.0038
     15 C         140.6244  141.9895  166.6400 C.2     1  UNL1        0.0026
     16 C         139.6951  140.8308  166.8490 C.2     1  UNL1        0.0395
     17 C         141.8792  140.6361  171.0585 C.3     1  UNL1        0.1110
     18 N         141.3445  140.4116  169.6752 N.am    1  UNL1       -0.2979
     19 C         139.8675  140.2673  169.4562 C.2     1  UNL1        0.2655
     20 O         138.9255  140.3474  170.6206 O.2     1  UNL1       -0.2684
     21 H         141.9629  140.3591  168.9109 H       1  UNL1        0.1498
     22 N         140.6688  144.3947  158.6423 N.ar    1  UNL1       -0.2734
     23 C         141.7895  145.3536  158.3691 C.ar    1  UNL1        0.0829
     24 C         141.9518  145.9475  157.0014 C.ar    1  UNL1        0.0189
     25 C         140.9934  145.5826  155.9066 C.ar    1  UNL1        0.0020
     26 C         139.8727  144.6237  156.1798 C.ar    1  UNL1        0.0347
     27 C         138.9144  144.2587  155.0851 C.3     1  UNL1        0.0360
     28 C         139.7105  144.0297  157.5476 C.ar    1  UNL1        0.2607
     29 O         138.5898  143.0708  157.8207 O.2     1  UNL1       -0.2670
@<TRIPOS>BOND
     1    17    18    1
     2    18    19   am
     3    19    20    2
     4    19     8    1
     5     8     9    2
     6     9    10    1
     7    10    11    2
     8    11    12    1
     9    12    13    1
    10    13     1    1
    11     1     2   ar
    12     2     3   ar
    13     3     4   ar
    14     4    22    1
    15    22    23   ar
    16    23    24   ar
    17    24    25   ar
    18    25    26   ar
    19    26    27    1
    20    26    28   ar
    21    28    29    2
    22     4     5   ar
    23     5     6   ar
    24     6     7    1
    25    13    14    2
    26    14    15    1
    27    15    16    2
    28    16     8    1
    29    16    11    1
    30     6     1   ar
    31    28    22   ar
    32    18    21    1
@<TRIPOS>MOLECULE
*****
 29 32 0 0 0
SMALL
GASTEIGER

@<TRIPOS>ATOM
      1 C         139.9605  141.3224  163.4029 C.ar    1  UNL1        0.0071
      2 C         141.1122  140.4107  163.7066 C.ar    1  UNL1        0.0020
      3 C         141.6106  140.2755  165.1149 C.ar    1  UNL1        0.0177
      4 C         140.9571  141.0520  166.2195 C.ar    1  UNL1        0.0677
      5 C         139.8053  141.9637  165.9158 C.ar    1  UNL1        0.0290
      6 C         139.3070  142.0989  164.5074 C.ar    1  UNL1        0.0588
      7 CL        138.1552  143.0106  164.2037 Cl      1  UNL1       -0.0822
      8 C         138.1504  142.1175  157.7640 C.2     1  UNL1        0.1571
      9 N         138.9226  143.3628  157.4433 N.2     1  UNL1       -0.1436
     10 N         139.7150  143.7428  158.6589 N.2     1  UNL1       -0.1519
     11 C         139.4325  142.7324  159.7309 C.2     1  UNL1        0.0865
     12 C         139.9308  142.5973  161.1392 C.3     1  UNL1        0.0740
     13 C         139.4621  141.4576  161.9945 C.2     1  UNL1       -0.0153
     14 C         138.4952  140.4531  161.4414 C.2     1  UNL1       -0.0038
     15 C         137.9968  140.5882  160.0331 C.2     1  UNL1        0.0026
     16 C         138.4655  141.7279  159.1779 C.2     1  UNL1        0.0395
     17 C         135.1517  141.3874  155.2689 C.3     1  UNL1        0.1110
     18 N         136.0767  142.1154  156.1988 N.am    1  UNL1       -0.2979
     19 C         137.2254  141.3896  156.8342 C.2     1  UNL1        0.2655
     20 O         137.4491  139.9359  156.5397 O.2     1  UNL1       -0.2684
     21 H         135.9298  143.0695  156.3920 H       1  UNL1        0.1498
     22 N         141.4554  140.9168  167.6278 N.ar    1  UNL1       -0.2734
     23 C         140.7822  139.9670  168.5737 C.ar    1  UNL1        0.0829
     24 C         141.2805  139.8318  169.9820 C.ar    1  UNL1        0.0189
     25 C         142.4522  140.6464  170.4445 C.ar    1  UNL1        0.0020
     26 C         143.1254  141.5962  169.4986 C.ar    1  UNL1        0.0347
     27 C         144.2969  142.4107  169.9610 C.3     1  UNL1        0.0360
     28 C         142.6270  141.7314  168.0902 C.ar    1  UNL1        0.2607
     29 O         143.3002  142.6811  167.1444 O.2     1  UNL1       -0.2670
@<TRIPOS>BOND
     1    17    18    1
     2    18    19   am
     3    19    20    2
     4    19     8    1
     5     8     9    2
     6     9    10    1
     7    10    11    2
     8    11    12    1
     9    12    13    1
    10    13     1    1
    11     1     2   ar
    12     2     3   ar
    13     3     4   ar
    14     4    22    1
    15    22    23   ar
    16    23    24   ar
    17    24    25   ar
    18    25    26   ar
    19    26    27    1
    20    26    28   ar
    21    28    29    2
    22     4     5   ar
    23     5     6   ar
    24     6     7    1
    25    13    14    2
    26    14    15    1
    27    15    16    2
    28    16     8    1
    29    16    11    1
    30     6     1   ar
    31    28    22   ar
    32    18    21    1
@<TRIPOS>MOLECULE
*****
 29 32 0 0 0
SMALL
GASTEIGER

@<TRIPOS>ATOM
      1 C         140.6884  139.4007  162.8902 C.ar    1  UNL1        0.0071
      2 C         141.4589  140.2962  161.9658 C.ar    1  UNL1        0.0020
      3 C         141.3795  140.0894  160.4823 C.ar    1  UNL1        0.0177
      4 C         140.5296  138.9871  159.9230 C.ar    1  UNL1        0.0677
      5 C         139.7591  138.0916  160.8474 C.ar    1  UNL1        0.0290
      6 C         139.8386  138.2984  162.3310 C.ar    1  UNL1        0.0588
      7 CL        139.0681  137.4030  163.2554 Cl      1  UNL1       -0.0822
      8 C         141.2804  140.0787  168.7973 C.2     1  UNL1        0.1571
      9 N         142.6094  139.4073  168.9784 N.2     1  UNL1       -0.1436
     10 N         143.0770  138.9350  167.6337 N.2     1  UNL1       -0.1519
     11 C         142.0370  139.3144  166.6216 C.2     1  UNL1        0.0865
     12 C         141.9576  139.1075  165.1381 C.3     1  UNL1        0.0740
     13 C         140.7678  139.6076  164.3738 C.2     1  UNL1       -0.0153
     14 C         139.6574  140.3145  165.0929 C.2     1  UNL1       -0.0038
     15 C         139.7368  140.5213  166.5764 C.2     1  UNL1        0.0026
     16 C         140.9266  140.0213  167.3408 C.2     1  UNL1        0.0395
     17 C         139.5311  142.8117  171.0824 C.3     1  UNL1        0.1110
     18 N         140.3608  142.1917  169.9974 N.am    1  UNL1       -0.2979
     19 C         140.4507  140.6987  169.8824 C.2     1  UNL1        0.2655
     20 O         139.7109  139.8260  170.8523 O.2     1  UNL1       -0.2684
     21 H         140.8463  142.7646  169.3608 H       1  UNL1        0.1498
     22 N         140.4502  138.7803  158.4395 N.ar    1  UNL1       -0.2734
     23 C         141.5246  138.0097  157.7311 C.ar    1  UNL1        0.0829
     24 C         141.4453  137.8029  156.2476 C.ar    1  UNL1        0.0189
     25 C         140.2914  138.3667  155.4724 C.ar    1  UNL1        0.0020
     26 C         139.2170  139.1373  156.1808 C.ar    1  UNL1        0.0347
     27 C         138.0633  139.7011  155.4057 C.3     1  UNL1        0.0360
     28 C         139.2965  139.3441  157.6644 C.ar    1  UNL1        0.2607
     29 O         138.2221  140.1147  158.3728 O.2     1  UNL1       -0.2670
@<TRIPOS>BOND
     1    17    18    1
     2    18    19   am
     3    19    20    2
     4    19     8    1
     5     8     9    2
     6     9    10    1
     7    10    11    2
     8    11    12    1
     9    12    13    1
    10    13     1    1
    11     1     2   ar
    12     2     3   ar
    13     3     4   ar
    14     4    22    1
    15    22    23   ar
    16    23    24   ar
    17    24    25   ar
    18    25    26   ar
    19    26    27    1
    20    26    28   ar
    21    28    29    2
    22     4     5   ar
    23     5     6   ar
    24     6     7    1
    25    13    14    2
    26    14    15    1
    27    15    16    2
    28    16     8    1
    29    16    11    1
    30     6     1   ar
    31    28    22   ar
    32    18    21    1
@<TRIPOS>MOLECULE
*****
 29 32 0 0 0
SMALL
GASTEIGER

@<TRIPOS>ATOM
      1 C         141.0280  142.9713  163.2664 C.ar    1  UNL1        0.0071
      2 C         142.0700  141.9417  163.5887 C.ar    1  UNL1        0.0020
      3 C         142.3567  141.5865  165.0176 C.ar    1  UNL1        0.0177
      4 C         141.6013  142.2610  166.1241 C.ar    1  UNL1        0.0677
      5 C         140.5592  143.2907  165.8018 C.ar    1  UNL1        0.0290
      6 C         140.2726  143.6459  164.3729 C.ar    1  UNL1        0.0588
      7 CL        139.2306  144.6755  164.0505 Cl      1  UNL1       -0.0822
      8 C         140.1215  144.5904  157.5864 C.2     1  UNL1        0.1571
      9 N         141.2101  145.6144  157.4579 N.2     1  UNL1       -0.1436
     10 N         141.9294  145.6935  158.7718 N.2     1  UNL1       -0.1519
     11 C         141.2854  144.7185  159.7123 C.2     1  UNL1        0.0865
     12 C         141.5721  144.3634  161.1412 C.3     1  UNL1        0.0740
     13 C         140.7414  143.3265  161.8374 C.2     1  UNL1       -0.0153
     14 C         139.6240  142.6447  161.1048 C.2     1  UNL1       -0.0038
     15 C         139.3374  142.9998  159.6759 C.2     1  UNL1        0.0026
     16 C         140.1681  144.0367  158.9797 C.2     1  UNL1        0.0395
     17 C         137.4657  144.8422  154.6481 C.3     1  UNL1        0.1110
     18 N         138.4313  145.2423  155.7240 N.am    1  UNL1       -0.2979
     19 C         139.1559  144.1903  156.5105 C.2     1  UNL1        0.2655
     20 O         138.9149  142.7385  156.2210 O.2     1  UNL1       -0.2684
     21 H         138.5895  146.1952  155.9140 H       1  UNL1        0.1498
     22 N         141.8879  141.9058  167.5530 N.ar    1  UNL1       -0.2734
     23 C         143.1675  142.3537  168.1950 C.ar    1  UNL1        0.0829
     24 C         143.4541  141.9986  169.6238 C.ar    1  UNL1        0.0189
     25 C         142.4612  141.1954  170.4107 C.ar    1  UNL1        0.0020
     26 C         141.1816  140.7475  169.7688 C.ar    1  UNL1        0.0347
     27 C         140.1887  139.9445  170.5556 C.3     1  UNL1        0.0360
     28 C         140.8950  141.1028  168.3398 C.ar    1  UNL1        0.2607
     29 O         139.6155  140.6549  167.6978 O.2     1  UNL1       -0.2670
@<TRIPOS>BOND
     1    17    18    1
     2    18    19   am
     3    19    20    2
     4    19     8    1
     5     8     9    2
     6     9    10    1
     7    10    11    2
     8    11    12    1
     9    12    13    1
    10    13     1    1
    11     1     2   ar
    12     2     3   ar
    13     3     4   ar
    14     4    22    1
    15    22    23   ar
    16    23    24   ar
    17    24    25   ar
    18    25    26   ar
    19    26    27    1
    20    26    28   ar
    21    28    29    2
    22     4     5   ar
    23     5     6   ar
    24     6     7    1
    25    13    14    2
    26    14    15    1
    27    15    16    2
    28    16     8    1
    29    16    11    1
    30     6     1   ar
    31    28    22   ar
    32    18    21    1
@<TRIPOS>MOLECULE
*****
 29 32 0 0 0
SMALL
GASTEIGER

@<TRIPOS>ATOM
      1 C         140.5969  139.6576  163.0881 C.ar    1  UNL1        0.0071
      2 C         140.1324  140.6220  162.0373 C.ar    1  UNL1        0.0020
      3 C         140.2565  140.2664  160.5854 C.ar    1  UNL1        0.0177
      4 C         140.8452  138.9463  160.1842 C.ar    1  UNL1        0.0677
      5 C         141.3097  137.9819  161.2350 C.ar    1  UNL1        0.0290
      6 C         141.1855  138.3376  162.6870 C.ar    1  UNL1        0.0588
      7 CL        141.6500  137.3732  163.7378 Cl      1  UNL1       -0.0822
      8 C         139.8746  140.8626  168.8960 C.2     1  UNL1        0.1571
      9 N         138.7695  139.8951  169.2005 N.2     1  UNL1       -0.1436
     10 N         138.4363  139.1593  167.9366 N.2     1  UNL1       -0.1519
     11 C         139.3354  139.6720  166.8509 C.2     1  UNL1        0.0865
     12 C         139.4596  139.3163  165.3990 C.3     1  UNL1        0.0740
     13 C         140.4727  140.0133  164.5401 C.2     1  UNL1       -0.0153
     14 C         141.3616  141.0660  165.1331 C.2     1  UNL1       -0.0038
     15 C         141.2375  141.4217  166.5849 C.2     1  UNL1        0.0026
     16 C         140.2244  140.7247  167.4439 C.2     1  UNL1        0.0395
     17 C         142.6242  143.0498  170.7416 C.3     1  UNL1        0.1110
     18 N         141.9817  142.1095  169.7654 N.am    1  UNL1       -0.2979
     19 C         140.5171  141.8029  169.8722 C.2     1  UNL1        0.2655
     20 O         139.6954  142.4365  170.9552 O.2     1  UNL1       -0.2684
     21 H         142.5211  141.6936  169.0545 H       1  UNL1        0.1498
     22 N         140.9694  138.5907  158.7323 N.ar    1  UNL1       -0.2734
     23 C         139.7547  138.1791  157.9544 C.ar    1  UNL1        0.0829
     24 C         139.8789  137.8235  156.5025 C.ar    1  UNL1        0.0189
     25 C         141.2178  137.8794  155.8285 C.ar    1  UNL1        0.0020
     26 C         142.4325  138.2910  156.6064 C.ar    1  UNL1        0.0347
     27 C         143.7713  138.3469  155.9324 C.3     1  UNL1        0.0360
     28 C         142.3082  138.6466  158.0584 C.ar    1  UNL1        0.2607
     29 O         143.5229  139.0582  158.8363 O.2     1  UNL1       -0.2670
@<TRIPOS>BOND
     1    17    18    1
     2    18    19   am
     3    19    20    2
     4    19     8    1
     5     8     9    2
     6     9    10    1
     7    10    11    2
     8    11    12    1
     9    12    13    1
    10    13     1    1
    11     1     2   ar
    12     2     3   ar
    13     3     4   ar
    14     4    22    1
    15    22    23   ar
    16    23    24   ar
    17    24    25   ar
    18    25    26   ar
    19    26    27    1
    20    26    28   ar
    21    28    29    2
    22     4     5   ar
    23     5     6   ar
    24     6     7    1
    25    13    14    2
    26    14    15    1
    27    15    16    2
    28    16     8    1
    29    16    11    1
    30     6     1   ar
    31    28    22   ar
    32    18    21    1
