@<TRIPOS>MOLECULE
*****
 27 28 0 0 0
SMALL
GASTEIGER

@<TRIPOS>ATOM
      1 C         141.3185  143.9579  163.6569 C.ar    1  UNL1        0.1255
      2 C         139.9747  144.2169  164.2709 C.ar    1  UNL1        0.0233
      3 C         139.6403  143.6404  165.6147 C.ar    1  UNL1        0.0383
      4 C         140.6498  142.8048  166.3446 C.ar    1  UNL1        0.1387
      5 C         141.9936  142.5458  165.7306 C.ar    1  UNL1        0.0383
      6 C         142.3280  143.1223  164.3868 C.ar    1  UNL1        0.0233
      7 S         141.6528  144.5344  162.3131 S.O2    1  UNL1        0.0768
      8 O         142.3285  143.2510  161.9306 O.2     1  UNL1       -0.1498
      9 O         140.9771  145.8178  162.6956 O.2     1  UNL1       -0.1498
     10 N         141.3203  145.6206  158.5106 N.am    1  UNL1       -0.2894
     11 C         140.9859  145.0441  159.8544 C.2     1  UNL1        0.3194
     12 O         139.6503  144.4008  160.0832 O.2     1  UNL1       -0.2512
     13 N         141.9871  145.1109  160.9693 N.am    1  UNL1       -0.1693
     14 H         142.1969  146.0429  158.3603 H       1  UNL1        0.1509
     15 H         142.8637  145.5331  160.8191 H       1  UNL1        0.1781
     16 C         139.9876  144.2346  156.7633 C.3     1  UNL1        0.0213
     17 C         140.3190  145.5538  157.3956 C.3     1  UNL1        0.0732
     18 C         139.6492  146.8062  156.9131 C.3     1  UNL1        0.0213
     19 O         140.3155  142.2283  167.6884 O.3     1  UNL1       -0.4740
     20 C         140.1453  140.7465  167.8475 C.3     1  UNL1        0.2226
     21 C         139.2639  139.9868  166.9010 C.3     1  UNL1        0.1200
     22 N         139.8735  139.0919  165.8629 N.3     1  UNL1       -0.2696
     23 C         138.9954  138.3806  164.8767 C.3     1  UNL1        0.0722
     24 C         139.6050  137.4857  163.8386 C.3     1  UNL1        0.0174
     25 C         141.0928  137.3022  163.7868 C.3     1  UNL1        0.0029
     26 C         141.9710  138.0136  164.7731 C.3     1  UNL1        0.0174
     27 C         141.3614  138.9085  165.8111 C.3     1  UNL1        0.0722
@<TRIPOS>BOND
     1    16    17    1
     2    17    18    1
     3    17    10    1
     4    10    11   am
     5    11    12    2
     6    11    13   am
     7    13     7    1
     8     7     8    2
     9     7     9    2
    10     7     1    1
    11     1     2   ar
    12     2     3   ar
    13     3     4   ar
    14     4    19    1
    15    19    20    1
    16    20    21    1
    17    21    22    1
    18    22    23    1
    19    23    24    1
    20    24    25    1
    21    25    26    1
    22    26    27    1
    23     4     5   ar
    24     5     6   ar
    25     6     1   ar
    26    27    22    1
    27    10    14    1
    28    13    15    1
@<TRIPOS>MOLECULE
*****
 27 28 0 0 0
SMALL
GASTEIGER

@<TRIPOS>ATOM
      1 C         141.0656  143.8024  163.1475 C.ar    1  UNL1        0.1255
      2 C         140.1638  144.4596  164.1498 C.ar    1  UNL1        0.0233
      3 C         139.7887  143.7360  165.4091 C.ar    1  UNL1        0.0383
      4 C         140.3155  142.3553  165.6660 C.ar    1  UNL1        0.1387
      5 C         141.2173  141.6981  164.6637 C.ar    1  UNL1        0.0383
      6 C         141.5924  142.4217  163.4044 C.ar    1  UNL1        0.0233
      7 S         141.4407  144.5260  161.8882 S.O2    1  UNL1        0.0768
      8 O         140.6948  145.7379  162.3624 O.2     1  UNL1       -0.1498
      9 O         142.1865  143.3140  161.4140 O.2     1  UNL1       -0.1498
     10 N         141.3004  145.8931  158.1651 N.am    1  UNL1       -0.2894
     11 C         140.9254  145.1695  159.4244 C.2     1  UNL1        0.3194
     12 O         139.6599  144.3660  159.4791 O.2     1  UNL1       -0.2512
     13 N         141.8157  145.2495  160.6289 N.am    1  UNL1       -0.1693
     14 H         142.1310  146.4205  158.1292 H       1  UNL1        0.1509
     15 H         142.6463  145.7769  160.5930 H       1  UNL1        0.1781
     16 C         139.4465  146.9241  156.6650 C.3     1  UNL1        0.0213
     17 C         140.4100  145.8131  156.9606 C.3     1  UNL1        0.0732
     18 C         140.4831  144.6221  156.0517 C.3     1  UNL1        0.0213
     19 O         139.9405  141.6317  166.9253 O.3     1  UNL1       -0.4740
     20 C         139.6654  140.1576  166.8898 C.3     1  UNL1        0.2226
     21 C         138.4255  139.6419  166.2215 C.3     1  UNL1        0.1200
     22 N         138.4476  139.2995  164.7613 N.3     1  UNL1       -0.2696
     23 C         137.8981  140.2673  163.7556 C.3     1  UNL1        0.0722
     24 C         137.9202  139.9250  162.2953 C.3     1  UNL1        0.0174
     25 C         138.4918  138.6147  161.8408 C.3     1  UNL1        0.0029
     26 C         139.0412  137.6469  162.8465 C.3     1  UNL1        0.0174
     27 C         139.0191  137.9893  164.3067 C.3     1  UNL1        0.0722
@<TRIPOS>BOND
     1    16    17    1
     2    17    18    1
     3    17    10    1
     4    10    11   am
     5    11    12    2
     6    11    13   am
     7    13     7    1
     8     7     8    2
     9     7     9    2
    10     7     1    1
    11     1     2   ar
    12     2     3   ar
    13     3     4   ar
    14     4    19    1
    15    19    20    1
    16    20    21    1
    17    21    22    1
    18    22    23    1
    19    23    24    1
    20    24    25    1
    21    25    26    1
    22    26    27    1
    23     4     5   ar
    24     5     6   ar
    25     6     1   ar
    26    27    22    1
    27    10    14    1
    28    13    15    1
@<TRIPOS>MOLECULE
*****
 27 28 0 0 0
SMALL
GASTEIGER

@<TRIPOS>ATOM
      1 C         140.7567  144.1771  162.1666 C.ar    1  UNL1        0.1255
      2 C         140.9758  142.6942  162.1140 C.ar    1  UNL1        0.0233
      3 C         140.6842  141.8497  163.3189 C.ar    1  UNL1        0.0383
      4 C         140.1736  142.4883  164.5765 C.ar    1  UNL1        0.1387
      5 C         139.9545  143.9712  164.6291 C.ar    1  UNL1        0.0383
      6 C         140.2461  144.8156  163.4241 C.ar    1  UNL1        0.0233
      7 S         141.0483  145.0216  160.9616 S.O2    1  UNL1        0.0768
      8 O         139.7317  145.7198  161.1323 O.2     1  UNL1       -0.1498
      9 O         142.3649  144.3234  160.7909 O.2     1  UNL1       -0.1498
     10 N         141.0311  146.3552  157.2238 N.am    1  UNL1       -0.2894
     11 C         140.7396  145.5107  158.4288 C.2     1  UNL1        0.3194
     12 O         139.8477  144.3109  158.3058 O.2     1  UNL1       -0.2512
     13 N         141.3399  145.8660  159.7567 N.am    1  UNL1       -0.1693
     14 H         141.6165  147.1426  157.3045 H       1  UNL1        0.1509
     15 H         141.9252  146.6535  159.8374 H       1  UNL1        0.1781
     16 C         139.1347  146.6220  155.4681 C.3     1  UNL1        0.0213
     17 C         140.4308  145.9998  155.8959 C.3     1  UNL1        0.0732
     18 C         141.1266  145.0222  154.9957 C.3     1  UNL1        0.0213
     19 O         139.8820  141.6438  165.7814 O.3     1  UNL1       -0.4740
     20 C         140.7904  140.5041  166.1362 C.3     1  UNL1        0.2226
     21 C         142.1740  140.7786  166.6464 C.3     1  UNL1        0.1200
     22 N         143.2997  140.9993  165.6799 N.3     1  UNL1       -0.2696
     23 C         143.9307  139.8301  164.9837 C.3     1  UNL1        0.0722
     24 C         145.0564  140.0508  164.0172 C.3     1  UNL1        0.0174
     25 C         145.5511  141.4408  163.7469 C.3     1  UNL1        0.0029
     26 C         144.9201  142.6101  164.4431 C.3     1  UNL1        0.0174
     27 C         143.7945  142.3894  165.4096 C.3     1  UNL1        0.0722
@<TRIPOS>BOND
     1    16    17    1
     2    17    18    1
     3    17    10    1
     4    10    11   am
     5    11    12    2
     6    11    13   am
     7    13     7    1
     8     7     8    2
     9     7     9    2
    10     7     1    1
    11     1     2   ar
    12     2     3   ar
    13     3     4   ar
    14     4    19    1
    15    19    20    1
    16    20    21    1
    17    21    22    1
    18    22    23    1
    19    23    24    1
    20    24    25    1
    21    25    26    1
    22    26    27    1
    23     4     5   ar
    24     5     6   ar
    25     6     1   ar
    26    27    22    1
    27    10    14    1
    28    13    15    1
@<TRIPOS>MOLECULE
*****
 27 28 0 0 0
SMALL
GASTEIGER

@<TRIPOS>ATOM
      1 C         140.7075  144.5824  162.3655 C.ar    1  UNL1        0.1255
      2 C         139.6359  145.1535  163.2460 C.ar    1  UNL1        0.0233
      3 C         139.3106  144.4959  164.5543 C.ar    1  UNL1        0.0383
      4 C         140.0570  143.2672  164.9821 C.ar    1  UNL1        0.1387
      5 C         141.1286  142.6960  164.1016 C.ar    1  UNL1        0.0383
      6 C         141.4538  143.3536  162.7933 C.ar    1  UNL1        0.0233
      7 S         141.0328  145.2400  161.0571 S.O2    1  UNL1        0.0768
      8 O         139.7896  146.0722  161.1664 O.2     1  UNL1       -0.1498
      9 O         142.2759  144.4078  160.9479 O.2     1  UNL1       -0.1498
     10 N         140.9396  146.1627  157.1984 N.am    1  UNL1       -0.2894
     11 C         140.6144  145.5051  158.5067 C.2     1  UNL1        0.3194
     12 O         139.5453  144.4549  158.5730 O.2     1  UNL1       -0.2512
     13 N         141.3581  145.8976  159.7488 N.am    1  UNL1       -0.1693
     14 H         141.6413  146.8519  157.1549 H       1  UNL1        0.1509
     15 H         142.0597  146.5869  159.7053 H       1  UNL1        0.1781
     16 C         140.7746  144.7433  155.0286 C.3     1  UNL1        0.0213
     17 C         140.1959  145.7701  155.9563 C.3     1  UNL1        0.0732
     18 C         138.8734  146.4043  155.6419 C.3     1  UNL1        0.0213
     19 O         139.7317  142.6096  166.2905 O.3     1  UNL1       -0.4740
     20 C         140.8368  142.1794  167.2089 C.3     1  UNL1        0.2226
     21 C         141.1969  140.7275  167.3205 C.3     1  UNL1        0.1200
     22 N         140.3498  139.6906  166.6442 N.3     1  UNL1       -0.2696
     23 C         138.9487  139.4411  167.1180 C.3     1  UNL1        0.0722
     24 C         138.1016  138.4042  166.4417 C.3     1  UNL1        0.0174
     25 C         138.6558  137.6168  165.2915 C.3     1  UNL1        0.0029
     26 C         140.0570  137.8663  164.8177 C.3     1  UNL1        0.0174
     27 C         140.9040  138.9032  165.4940 C.3     1  UNL1        0.0722
@<TRIPOS>BOND
     1    16    17    1
     2    17    18    1
     3    17    10    1
     4    10    11   am
     5    11    12    2
     6    11    13   am
     7    13     7    1
     8     7     8    2
     9     7     9    2
    10     7     1    1
    11     1     2   ar
    12     2     3   ar
    13     3     4   ar
    14     4    19    1
    15    19    20    1
    16    20    21    1
    17    21    22    1
    18    22    23    1
    19    23    24    1
    20    24    25    1
    21    25    26    1
    22    26    27    1
    23     4     5   ar
    24     5     6   ar
    25     6     1   ar
    26    27    22    1
    27    10    14    1
    28    13    15    1
@<TRIPOS>MOLECULE
*****
 27 28 0 0 0
SMALL
GASTEIGER

@<TRIPOS>ATOM
      1 C         141.3900  141.1608  168.7458 C.ar    1  UNL1        0.1255
      2 C         139.9098  140.9394  168.6454 C.ar    1  UNL1        0.0233
      3 C         139.3585  140.0187  167.5974 C.ar    1  UNL1        0.0383
      4 C         140.2874  139.3194  166.6497 C.ar    1  UNL1        0.1387
      5 C         141.7675  139.5408  166.7501 C.ar    1  UNL1        0.0383
      6 C         142.3188  140.4615  167.7981 C.ar    1  UNL1        0.0233
      7 S         141.9413  142.0815  169.7938 S.O2    1  UNL1        0.0768
      8 O         142.7049  140.9393  170.3956 O.2     1  UNL1       -0.1498
      9 O         141.1776  143.2238  169.1920 O.2     1  UNL1       -0.1498
     10 N         144.4164  144.5061  171.7290 N.am    1  UNL1       -0.2894
     11 C         143.8651  143.5854  170.6810 C.2     1  UNL1        0.3194
     12 O         144.6865  143.2477  169.4721 O.2     1  UNL1       -0.2512
     13 N         142.4925  143.0023  170.8418 N.am    1  UNL1       -0.1693
     14 H         143.8774  144.7277  172.5225 H       1  UNL1        0.1509
     15 H         141.9535  143.2239  171.6353 H       1  UNL1        0.1781
     16 C         146.9500  144.1963  171.2440 C.3     1  UNL1        0.0213
     17 C         145.7891  145.0892  171.5681 C.3     1  UNL1        0.0732
     18 C         146.0009  146.5651  171.7314 C.3     1  UNL1        0.0213
     19 O         139.7361  138.3987  165.6017 O.3     1  UNL1       -0.4740
     20 C         139.0413  138.9629  164.3980 C.3     1  UNL1        0.2226
     21 C         139.6274  140.1405  163.6771 C.3     1  UNL1        0.1200
     22 N         139.3569  141.5316  164.1690 N.3     1  UNL1       -0.2696
     23 C         137.9814  142.1168  164.0448 C.3     1  UNL1        0.0722
     24 C         137.7108  143.5078  164.5367 C.3     1  UNL1        0.0174
     25 C         138.8159  144.3136  165.1528 C.3     1  UNL1        0.0029
     26 C         140.1915  143.7283  165.2770 C.3     1  UNL1        0.0174
     27 C         140.4619  142.3373  164.7851 C.3     1  UNL1        0.0722
@<TRIPOS>BOND
     1    16    17    1
     2    17    18    1
     3    17    10    1
     4    10    11   am
     5    11    12    2
     6    11    13   am
     7    13     7    1
     8     7     8    2
     9     7     9    2
    10     7     1    1
    11     1     2   ar
    12     2     3   ar
    13     3     4   ar
    14     4    19    1
    15    19    20    1
    16    20    21    1
    17    21    22    1
    18    22    23    1
    19    23    24    1
    20    24    25    1
    21    25    26    1
    22    26    27    1
    23     4     5   ar
    24     5     6   ar
    25     6     1   ar
    26    27    22    1
    27    10    14    1
    28    13    15    1
@<TRIPOS>MOLECULE
*****
 27 28 0 0 0
SMALL
GASTEIGER

@<TRIPOS>ATOM
      1 C         142.2920  141.9079  164.0435 C.ar    1  UNL1        0.1255
      2 C         142.1958  141.2567  162.6957 C.ar    1  UNL1        0.0233
      3 C         142.3174  142.0860  161.4517 C.ar    1  UNL1        0.0383
      4 C         142.5353  143.5664  161.5555 C.ar    1  UNL1        0.1387
      5 C         142.6316  144.2176  162.9034 C.ar    1  UNL1        0.0383
      6 C         142.5099  143.3883  164.1474 C.ar    1  UNL1        0.0233
      7 S         142.1704  141.0786  165.2875 S.O2    1  UNL1        0.0768
      8 O         143.3733  141.7656  165.8631 O.2     1  UNL1       -0.1498
      9 O         140.9675  140.3917  164.7120 O.2     1  UNL1       -0.1498
     10 N         141.1009  139.9118  168.9268 N.am    1  UNL1       -0.2894
     11 C         141.2225  140.7410  167.6828 C.2     1  UNL1        0.3194
     12 O         140.5178  142.0620  167.5902 O.2     1  UNL1       -0.2512
     13 N         142.0488  140.2494  166.5315 N.am    1  UNL1       -0.1693
     14 H         141.5634  139.0448  168.9877 H       1  UNL1        0.1509
     15 H         142.5113  139.3824  166.5924 H       1  UNL1        0.1781
     16 C         138.7795  140.2914  170.0302 C.3     1  UNL1        0.0213
     17 C         140.2746  140.4035  170.0781 C.3     1  UNL1        0.0732
     18 C         140.9433  141.0073  171.2774 C.3     1  UNL1        0.0213
     19 O         142.6570  144.3957  160.3115 O.3     1  UNL1       -0.4740
     20 C         141.4306  144.7521  159.5249 C.3     1  UNL1        0.2226
     21 C         140.2587  145.3897  160.2106 C.3     1  UNL1        0.1200
     22 N         139.4139  144.5863  161.1546 N.3     1  UNL1       -0.2696
     23 C         138.9255  143.2265  160.7519 C.3     1  UNL1        0.0722
     24 C         138.0807  142.4231  161.6959 C.3     1  UNL1        0.0174
     25 C         137.7245  142.9796  163.0425 C.3     1  UNL1        0.0029
     26 C         138.2130  144.3395  163.4452 C.3     1  UNL1        0.0174
     27 C         139.0577  145.1429  162.5012 C.3     1  UNL1        0.0722
@<TRIPOS>BOND
     1    16    17    1
     2    17    18    1
     3    17    10    1
     4    10    11   am
     5    11    12    2
     6    11    13   am
     7    13     7    1
     8     7     8    2
     9     7     9    2
    10     7     1    1
    11     1     2   ar
    12     2     3   ar
    13     3     4   ar
    14     4    19    1
    15    19    20    1
    16    20    21    1
    17    21    22    1
    18    22    23    1
    19    23    24    1
    20    24    25    1
    21    25    26    1
    22    26    27    1
    23     4     5   ar
    24     5     6   ar
    25     6     1   ar
    26    27    22    1
    27    10    14    1
    28    13    15    1
@<TRIPOS>MOLECULE
*****
 27 28 0 0 0
SMALL
GASTEIGER

@<TRIPOS>ATOM
      1 C         139.4052  143.0455  163.0885 C.ar    1  UNL1        0.1255
      2 C         138.0728  142.6908  163.6790 C.ar    1  UNL1        0.0233
      3 C         137.9854  141.6673  164.7721 C.ar    1  UNL1        0.0383
      4 C         139.2304  140.9986  165.2747 C.ar    1  UNL1        0.1387
      5 C         140.5628  141.3533  164.6842 C.ar    1  UNL1        0.0383
      6 C         140.6503  142.3767  163.5911 C.ar    1  UNL1        0.0233
      7 S         139.4927  144.0689  161.9954 S.O2    1  UNL1        0.0768
      8 O         140.8634  144.4550  162.4665 O.2     1  UNL1       -0.1498
      9 O         138.1219  143.6828  161.5242 O.2     1  UNL1       -0.1498
     10 N         140.1986  145.7293  158.4606 N.am    1  UNL1       -0.2894
     11 C         140.1112  144.7059  159.5537 C.2     1  UNL1        0.3194
     12 O         140.5549  143.2959  159.2983 O.2     1  UNL1       -0.2512
     13 N         139.5801  145.0923  160.9022 N.am    1  UNL1       -0.1693
     14 H         139.9074  146.6547  158.6282 H       1  UNL1        0.1509
     15 H         139.2889  146.0177  161.0699 H       1  UNL1        0.1781
     16 C         139.8092  144.7555  156.0836 C.3     1  UNL1        0.0213
     17 C         140.7298  145.3428  157.1120 C.3     1  UNL1        0.0732
     18 C         142.1814  145.5435  156.7920 C.3     1  UNL1        0.0213
     19 O         139.1430  139.9751  166.3679 O.3     1  UNL1       -0.4740
     20 C         138.1742  138.8358  166.2528 C.3     1  UNL1        0.2226
     21 C         138.5565  137.6000  165.4933 C.3     1  UNL1        0.1200
     22 N         139.3942  137.7106  164.2538 N.3     1  UNL1       -0.2696
     23 C         140.8854  137.5747  164.3418 C.3     1  UNL1        0.0722
     24 C         141.7230  137.6852  163.1023 C.3     1  UNL1        0.0174
     25 C         141.0693  137.9316  161.7749 C.3     1  UNL1        0.0029
     26 C         139.5780  138.0675  161.6870 C.3     1  UNL1        0.0174
     27 C         138.7405  137.9569  162.9264 C.3     1  UNL1        0.0722
@<TRIPOS>BOND
     1    16    17    1
     2    17    18    1
     3    17    10    1
     4    10    11   am
     5    11    12    2
     6    11    13   am
     7    13     7    1
     8     7     8    2
     9     7     9    2
    10     7     1    1
    11     1     2   ar
    12     2     3   ar
    13     3     4   ar
    14     4    19    1
    15    19    20    1
    16    20    21    1
    17    21    22    1
    18    22    23    1
    19    23    24    1
    20    24    25    1
    21    25    26    1
    22    26    27    1
    23     4     5   ar
    24     5     6   ar
    25     6     1   ar
    26    27    22    1
    27    10    14    1
    28    13    15    1
@<TRIPOS>MOLECULE
*****
 27 28 0 0 0
SMALL
GASTEIGER

@<TRIPOS>ATOM
      1 C         143.6081  138.8847  162.8677 C.ar    1  UNL1        0.1255
      2 C         144.6397  139.4598  163.7924 C.ar    1  UNL1        0.0233
      3 C         144.4191  139.4267  165.2757 C.ar    1  UNL1        0.0383
      4 C         143.1669  138.8185  165.8343 C.ar    1  UNL1        0.1387
      5 C         142.1354  138.2434  164.9096 C.ar    1  UNL1        0.0383
      6 C         142.3560  138.2765  163.4263 C.ar    1  UNL1        0.0233
      7 S         143.8288  138.9178  161.3843 S.O2    1  UNL1        0.0768
      8 O         144.2024  137.4653  161.4075 O.2     1  UNL1       -0.1498
      9 O         143.4551  140.3703  161.3612 O.2     1  UNL1       -0.1498
     10 N         143.1496  138.6315  157.4848 N.am    1  UNL1       -0.2894
     11 C         142.9290  138.5984  158.9681 C.2     1  UNL1        0.3194
     12 O         141.5879  138.2128  159.5185 O.2     1  UNL1       -0.2512
     13 N         144.0494  138.9509  159.9010 N.am    1  UNL1       -0.1693
     14 H         144.0298  138.8846  157.1235 H       1  UNL1        0.1509
     15 H         144.9296  139.2040  159.5398 H       1  UNL1        0.1781
     16 C         141.6901  136.8403  156.2967 C.3     1  UNL1        0.0213
     17 C         142.0291  138.2790  156.5518 C.3     1  UNL1        0.0732
     18 C         141.2476  139.3653  155.8741 C.3     1  UNL1        0.0213
     19 O         142.9463  138.7854  167.3176 O.3     1  UNL1       -0.4740
     20 C         142.5795  140.0423  168.0495 C.3     1  UNL1        0.2226
     21 C         141.1373  140.3734  168.2953 C.3     1  UNL1        0.1200
     22 N         140.1670  140.3934  167.1516 N.3     1  UNL1       -0.2696
     23 C         140.2850  141.4427  166.0862 C.3     1  UNL1        0.0722
     24 C         139.3146  141.4627  164.9424 C.3     1  UNL1        0.0174
     25 C         138.2263  140.4334  164.8642 C.3     1  UNL1        0.0029
     26 C         138.1083  139.3841  165.9296 C.3     1  UNL1        0.0174
     27 C         139.0787  139.3641  167.0733 C.3     1  UNL1        0.0722
@<TRIPOS>BOND
     1    16    17    1
     2    17    18    1
     3    17    10    1
     4    10    11   am
     5    11    12    2
     6    11    13   am
     7    13     7    1
     8     7     8    2
     9     7     9    2
    10     7     1    1
    11     1     2   ar
    12     2     3   ar
    13     3     4   ar
    14     4    19    1
    15    19    20    1
    16    20    21    1
    17    21    22    1
    18    22    23    1
    19    23    24    1
    20    24    25    1
    21    25    26    1
    22    26    27    1
    23     4     5   ar
    24     5     6   ar
    25     6     1   ar
    26    27    22    1
    27    10    14    1
    28    13    15    1
@<TRIPOS>MOLECULE
*****
 27 28 0 0 0
SMALL
GASTEIGER

@<TRIPOS>ATOM
      1 C         139.0619  139.1568  163.4282 C.ar    1  UNL1        0.1255
      2 C         138.7729  137.9506  162.5847 C.ar    1  UNL1        0.0233
      3 C         139.1102  137.9591  161.1231 C.ar    1  UNL1        0.0383
      4 C         139.7365  139.1739  160.5050 C.ar    1  UNL1        0.1387
      5 C         140.0254  140.3801  161.3485 C.ar    1  UNL1        0.0383
      6 C         139.6881  140.3716  162.8101 C.ar    1  UNL1        0.0233
      7 S         138.7245  139.1482  164.8897 S.O2    1  UNL1        0.0768
      8 O         138.0412  140.4751  164.7398 O.2     1  UNL1       -0.1498
      9 O         139.4079  137.8214  165.0397 O.2     1  UNL1       -0.1498
     10 N         138.9765  139.7765  168.8002 N.am    1  UNL1       -0.2894
     11 C         139.3138  139.7851  167.3386 C.2     1  UNL1        0.3194
     12 O         140.5778  140.4391  166.8644 O.2     1  UNL1       -0.2512
     13 N         138.3872  139.1397  166.3513 N.am    1  UNL1       -0.1693
     14 H         138.1470  139.3473  169.1114 H       1  UNL1        0.1509
     15 H         137.5577  138.7105  166.6625 H       1  UNL1        0.1781
     16 C         141.0832  139.6618  170.3164 C.3     1  UNL1        0.0213
     17 C         139.9031  140.4220  169.7875 C.3     1  UNL1        0.0732
     18 C         139.6497  141.8275  170.2459 C.3     1  UNL1        0.0213
     19 O         140.0738  139.1824  159.0435 O.3     1  UNL1       -0.4740
     20 C         141.5025  139.0623  158.6028 C.3     1  UNL1        0.2226
     21 C         142.4815  138.2882  159.4348 C.3     1  UNL1        0.1200
     22 N         143.1671  138.9483  160.5943 N.3     1  UNL1       -0.2696
     23 C         143.7090  140.3397  160.4521 C.3     1  UNL1        0.0722
     24 C         144.3946  140.9998  161.6116 C.3     1  UNL1        0.0174
     25 C         144.5383  140.2684  162.9132 C.3     1  UNL1        0.0029
     26 C         143.9964  138.8769  163.0554 C.3     1  UNL1        0.0174
     27 C         143.3109  138.2169  161.8960 C.3     1  UNL1        0.0722
@<TRIPOS>BOND
     1    16    17    1
     2    17    18    1
     3    17    10    1
     4    10    11   am
     5    11    12    2
     6    11    13   am
     7    13     7    1
     8     7     8    2
     9     7     9    2
    10     7     1    1
    11     1     2   ar
    12     2     3   ar
    13     3     4   ar
    14     4    19    1
    15    19    20    1
    16    20    21    1
    17    21    22    1
    18    22    23    1
    19    23    24    1
    20    24    25    1
    21    25    26    1
    22    26    27    1
    23     4     5   ar
    24     5     6   ar
    25     6     1   ar
    26    27    22    1
    27    10    14    1
    28    13    15    1
