@<TRIPOS>MOLECULE
*****
 34 39 0 0 0
SMALL
GASTEIGER

@<TRIPOS>ATOM
      1 C         140.0611  141.7337  165.5612 C.ar    1  UNL1        0.0908
      2 C         140.6043  141.1016  166.8084 C.ar    1  UNL1        0.1496
      3 O         140.3341  139.6279  166.7366 O.2     1  UNL1       -0.4534
      4 C         139.6239  139.3492  165.4450 C.ar    1  UNL1        0.1454
      5 C         139.1091  138.0785  164.8366 C.ar    1  UNL1        0.0406
      6 C         138.4256  138.1092  163.5018 C.ar    1  UNL1        0.0395
      7 C         138.2569  139.4107  162.7754 C.ar    1  UNL1        0.1311
      8 O         137.5734  139.4415  161.4405 O.3     1  UNL1       -0.5058
      9 C         138.7717  140.6814  163.3838 C.ar    1  UNL1        0.0308
     10 C         139.4552  140.6507  164.7186 C.ar    1  UNL1        0.0421
     11 H         137.2518  138.6477  161.0604 H       1  UNL1        0.2922
     12 C         141.2961  141.8175  167.9304 C.ar    1  UNL1        0.0349
     13 C         140.5204  142.7409  168.8222 C.ar    1  UNL1        0.0061
     14 C         141.2122  143.4568  169.9442 C.ar    1  UNL1        0.0367
     15 C         142.6798  143.2493  170.1743 C.ar    1  UNL1        0.1337
     16 O         143.3717  143.9652  171.2963 O.3     1  UNL1       -0.5055
     17 C         143.4556  142.3259  169.2824 C.ar    1  UNL1        0.0367
     18 C         142.7637  141.6100  168.1605 C.ar    1  UNL1        0.0061
     19 H         142.8871  144.5420  171.8534 H       1  UNL1        0.2922
     20 O         138.9912  144.1004  165.6221 O.2     1  UNL1       -0.2698
     21 C         140.1144  143.1927  165.2170 C.2     1  UNL1        0.2521
     22 N         141.2912  143.7440  164.4677 N.am    1  UNL1       -0.2759
     23 C         141.6864  145.1000  163.9628 C.3     1  UNL1        0.0955
     24 C         142.9553  144.5236  163.4082 C.3     1  UNL1        0.0430
     25 C         142.5601  143.1676  163.9131 C.3     1  UNL1        0.0955
     26 C         138.6030  141.9829  162.6574 C.3     1  UNL1        0.1023
     27 N         139.6546  142.4453  161.6928 N.3     1  UNL1       -0.2687
     28 C         140.7279  141.5929  161.0832 C.3     1  UNL1        0.0726
     29 C         141.5542  142.4620  160.1821 C.3     1  UNL1        0.0235
     30 C         140.9916  143.8515  160.2348 C.3     1  UNL1        0.0707
     31 C         140.6004  145.2962  160.1360 C.3     1  UNL1        0.1458
     32 O         141.7271  145.5355  159.1751 O.3     1  UNL1       -0.3535
     33 C         142.1182  144.0908  159.2740 C.3     1  UNL1        0.1458
     34 C         139.8176  143.8412  161.1685 C.3     1  UNL1        0.0772
@<TRIPOS>BOND
     1    20    21    2
     2    21     1    1
     3     1     2   ar
     4     2    12    1
     5    12    13   ar
     6    13    14   ar
     7    14    15   ar
     8    15    16    1
     9    15    17   ar
    10    17    18   ar
    11     2     3   ar
    12     3     4   ar
    13     4     5   ar
    14     5     6   ar
    15     6     7   ar
    16     7     8    1
    17     7     9   ar
    18     9    26    1
    19    26    27    1
    20    27    28    1
    21    28    29    1
    22    29    30    1
    23    30    31    1
    24    31    32    1
    25    32    33    1
    26    30    34    1
    27     9    10   ar
    28    21    22   am
    29    22    23    1
    30    23    24    1
    31    24    25    1
    32    10     1   ar
    33    25    22    1
    34    18    12   ar
    35    10     4   ar
    36    34    27    1
    37    33    30    1
    38    16    19    1
    39     8    11    1
@<TRIPOS>MOLECULE
*****
 34 39 0 0 0
SMALL
GASTEIGER

@<TRIPOS>ATOM
      1 C         140.3754  141.3102  165.6168 C.ar    1  UNL1        0.0908
      2 C         140.6395  141.9765  166.9344 C.ar    1  UNL1        0.1496
      3 O         139.9634  143.3154  166.9206 O.2     1  UNL1       -0.4534
      4 C         139.2813  143.4766  165.5943 C.ar    1  UNL1        0.1454
      5 C         138.4613  144.5917  165.0164 C.ar    1  UNL1        0.0406
      6 C         137.8960  144.4675  163.6326 C.ar    1  UNL1        0.0395
      7 C         138.1506  143.2282  162.8268 C.ar    1  UNL1        0.1311
      8 O         137.5852  143.1041  161.4429 O.3     1  UNL1       -0.5058
      9 C         138.9706  142.1131  163.4048 C.ar    1  UNL1        0.0308
     10 C         139.5360  142.2373  164.7885 C.ar    1  UNL1        0.0421
     11 H         137.0730  143.8006  161.0819 H       1  UNL1        0.2922
     12 C         141.4394  141.4044  168.0671 C.ar    1  UNL1        0.0349
     13 C         142.6304  142.1480  168.5948 C.ar    1  UNL1        0.0061
     14 C         143.4303  141.5758  169.7275 C.ar    1  UNL1        0.0367
     15 C         143.0391  140.2602  170.3324 C.ar    1  UNL1        0.1337
     16 O         143.8390  139.6880  171.4650 O.3     1  UNL1       -0.5055
     17 C         141.8481  139.5166  169.8047 C.ar    1  UNL1        0.0367
     18 C         141.0483  140.0887  168.6720 C.ar    1  UNL1        0.0061
     19 H         144.5830  140.1525  171.7947 H       1  UNL1        0.2922
     20 O         139.9401  138.7749  165.2526 O.2     1  UNL1       -0.2698
     21 C         140.8647  139.9548  165.2004 C.2     1  UNL1        0.2521
     22 N         142.2789  139.7793  164.7317 N.am    1  UNL1       -0.2759
     23 C         143.1010  138.6202  164.2517 C.3     1  UNL1        0.0955
     24 C         144.2786  139.5311  164.0690 C.3     1  UNL1        0.0430
     25 C         143.4565  140.6903  164.5490 C.3     1  UNL1        0.0955
     26 C         139.2253  140.8738  162.5990 C.3     1  UNL1        0.1023
     27 N         140.5264  140.7063  161.8716 N.3     1  UNL1       -0.2687
     28 C         141.5288  141.7880  161.5973 C.3     1  UNL1        0.0726
     29 C         142.6755  141.1780  160.8470 C.3     1  UNL1        0.0235
     30 C         142.3819  139.7192  160.6577 C.3     1  UNL1        0.0707
     31 C         142.2953  138.2522  160.3569 C.3     1  UNL1        0.1458
     32 O         143.6264  138.3149  159.6681 O.3     1  UNL1       -0.3535
     33 C         143.7128  139.7819  159.9689 C.3     1  UNL1        0.1458
     34 C         141.0536  139.4277  161.2909 C.3     1  UNL1        0.0772
@<TRIPOS>BOND
     1    20    21    2
     2    21     1    1
     3     1     2   ar
     4     2    12    1
     5    12    13   ar
     6    13    14   ar
     7    14    15   ar
     8    15    16    1
     9    15    17   ar
    10    17    18   ar
    11     2     3   ar
    12     3     4   ar
    13     4     5   ar
    14     5     6   ar
    15     6     7   ar
    16     7     8    1
    17     7     9   ar
    18     9    26    1
    19    26    27    1
    20    27    28    1
    21    28    29    1
    22    29    30    1
    23    30    31    1
    24    31    32    1
    25    32    33    1
    26    30    34    1
    27     9    10   ar
    28    21    22   am
    29    22    23    1
    30    23    24    1
    31    24    25    1
    32    10     1   ar
    33    25    22    1
    34    18    12   ar
    35    10     4   ar
    36    34    27    1
    37    33    30    1
    38    16    19    1
    39     8    11    1
@<TRIPOS>MOLECULE
*****
 34 39 0 0 0
SMALL
GASTEIGER

@<TRIPOS>ATOM
      1 C         141.5874  142.8643  165.4531 C.ar    1  UNL1        0.0908
      2 C         140.4904  142.9661  166.4710 C.ar    1  UNL1        0.1496
      3 O         139.4128  143.8426  165.9048 O.2     1  UNL1       -0.4534
      4 C         139.8439  144.2825  164.5371 C.ar    1  UNL1        0.1454
      5 C         139.1862  145.1555  163.5098 C.ar    1  UNL1        0.0406
      6 C         139.8726  145.4238  162.2034 C.ar    1  UNL1        0.0395
      7 C         141.2166  144.8192  161.9242 C.ar    1  UNL1        0.1311
      8 O         141.9030  145.0876  160.6177 O.3     1  UNL1       -0.5058
      9 C         141.8743  143.9462  162.9515 C.ar    1  UNL1        0.0308
     10 C         141.1879  143.6779  164.2579 C.ar    1  UNL1        0.0421
     11 H         141.4922  145.6329  159.9760 H       1  UNL1        0.2922
     12 C         140.4738  142.3072  167.8184 C.ar    1  UNL1        0.0349
     13 C         140.8630  143.0867  169.0394 C.ar    1  UNL1        0.0061
     14 C         140.8464  142.4277  170.3868 C.ar    1  UNL1        0.0367
     15 C         140.4406  140.9892  170.5132 C.ar    1  UNL1        0.1337
     16 O         140.4240  140.3303  171.8606 O.3     1  UNL1       -0.5055
     17 C         140.0514  140.2097  169.2922 C.ar    1  UNL1        0.0367
     18 C         140.0680  140.8687  167.9448 C.ar    1  UNL1        0.0061
     19 H         140.6671  140.8172  172.6233 H       1  UNL1        0.2922
     20 O         144.1298  142.7894  165.9830 O.2     1  UNL1       -0.2698
     21 C         142.8606  142.0857  165.6040 C.2     1  UNL1        0.2521
     22 N         142.8645  140.6030  165.3758 N.am    1  UNL1       -0.2759
     23 C         143.9052  139.5242  165.4308 C.3     1  UNL1        0.0955
     24 C         142.8701  138.5065  165.0531 C.3     1  UNL1        0.0430
     25 C         141.8294  139.5853  164.9981 C.3     1  UNL1        0.0955
     26 C         143.2184  143.3416  162.6724 C.3     1  UNL1        0.1023
     27 N         143.3196  141.9153  162.2191 N.3     1  UNL1       -0.2687
     28 C         144.5749  141.0963  162.1587 C.3     1  UNL1        0.0726
     29 C         144.2146  139.7325  161.6488 C.3     1  UNL1        0.0235
     30 C         142.7365  139.7084  161.3941 C.3     1  UNL1        0.0707
     31 C         141.2925  139.4617  161.0716 C.3     1  UNL1        0.1458
     32 O         141.6238  138.0567  160.6637 O.3     1  UNL1       -0.3535
     33 C         143.0677  138.3036  160.9862 C.3     1  UNL1        0.1458
     34 C         142.1834  141.0576  161.7465 C.3     1  UNL1        0.0772
@<TRIPOS>BOND
     1    20    21    2
     2    21     1    1
     3     1     2   ar
     4     2    12    1
     5    12    13   ar
     6    13    14   ar
     7    14    15   ar
     8    15    16    1
     9    15    17   ar
    10    17    18   ar
    11     2     3   ar
    12     3     4   ar
    13     4     5   ar
    14     5     6   ar
    15     6     7   ar
    16     7     8    1
    17     7     9   ar
    18     9    26    1
    19    26    27    1
    20    27    28    1
    21    28    29    1
    22    29    30    1
    23    30    31    1
    24    31    32    1
    25    32    33    1
    26    30    34    1
    27     9    10   ar
    28    21    22   am
    29    22    23    1
    30    23    24    1
    31    24    25    1
    32    10     1   ar
    33    25    22    1
    34    18    12   ar
    35    10     4   ar
    36    34    27    1
    37    33    30    1
    38    16    19    1
    39     8    11    1
@<TRIPOS>MOLECULE
*****
 34 39 0 0 0
SMALL
GASTEIGER

@<TRIPOS>ATOM
      1 C         142.5709  140.6925  165.6163 C.ar    1  UNL1        0.0908
      2 C         142.7784  141.8268  166.5756 C.ar    1  UNL1        0.1496
      3 O         143.6634  142.8395  165.9114 O.2     1  UNL1       -0.4534
      4 C         144.0030  142.3311  164.5416 C.ar    1  UNL1        0.1454
      5 C         144.8397  142.9050  163.4369 C.ar    1  UNL1        0.0406
      6 C         145.0013  142.1519  162.1498 C.ar    1  UNL1        0.0395
      7 C         144.3260  140.8249  161.9674 C.ar    1  UNL1        0.1311
      8 O         144.4876  140.0719  160.6802 O.3     1  UNL1       -0.5058
      9 C         143.4893  140.2511  163.0721 C.ar    1  UNL1        0.0308
     10 C         143.3278  141.0041  164.3592 C.ar    1  UNL1        0.0421
     11 H         145.0103  140.4304  159.9901 H       1  UNL1        0.2922
     12 C         142.2020  141.9302  167.9565 C.ar    1  UNL1        0.0349
     13 C         140.9362  142.7018  168.1850 C.ar    1  UNL1        0.0061
     14 C         140.3598  142.8052  169.5660 C.ar    1  UNL1        0.0367
     15 C         141.0493  142.1371  170.7185 C.ar    1  UNL1        0.1337
     16 O         140.4729  142.2406  172.0995 O.3     1  UNL1       -0.5055
     17 C         142.3151  141.3656  170.4900 C.ar    1  UNL1        0.0367
     18 C         142.8915  141.2621  169.1090 C.ar    1  UNL1        0.0061
     19 H         139.6821  142.7226  172.2422 H       1  UNL1        0.2922
     20 O         142.4270  138.1636  166.1941 O.2     1  UNL1       -0.2698
     21 C         141.7507  139.4624  165.8695 C.2     1  UNL1        0.2521
     22 N         140.2539  139.5312  165.7981 N.am    1  UNL1       -0.2759
     23 C         139.1369  138.5475  165.9835 C.3     1  UNL1        0.0955
     24 C         138.1373  139.6286  165.6970 C.3     1  UNL1        0.0430
     25 C         139.2543  140.6124  165.5116 C.3     1  UNL1        0.0955
     26 C         142.8141  138.9241  162.8897 C.3     1  UNL1        0.1023
     27 N         141.3484  138.8652  162.5763 N.3     1  UNL1       -0.2687
     28 C         140.4858  137.6387  162.6207 C.3     1  UNL1        0.0726
     29 C         139.0922  138.0379  162.2353 C.3     1  UNL1        0.0235
     30 C         139.0934  139.5110  161.9526 C.3     1  UNL1        0.0707
     31 C         138.8654  140.9568  161.6245 C.3     1  UNL1        0.1458
     32 O         137.4175  140.6681  161.3591 O.3     1  UNL1       -0.3535
     33 C         137.6456  139.2224  161.6873 C.3     1  UNL1        0.1458
     34 C         140.4878  140.0223  162.1634 C.3     1  UNL1        0.0772
@<TRIPOS>BOND
     1    20    21    2
     2    21     1    1
     3     1     2   ar
     4     2    12    1
     5    12    13   ar
     6    13    14   ar
     7    14    15   ar
     8    15    16    1
     9    15    17   ar
    10    17    18   ar
    11     2     3   ar
    12     3     4   ar
    13     4     5   ar
    14     5     6   ar
    15     6     7   ar
    16     7     8    1
    17     7     9   ar
    18     9    26    1
    19    26    27    1
    20    27    28    1
    21    28    29    1
    22    29    30    1
    23    30    31    1
    24    31    32    1
    25    32    33    1
    26    30    34    1
    27     9    10   ar
    28    21    22   am
    29    22    23    1
    30    23    24    1
    31    24    25    1
    32    10     1   ar
    33    25    22    1
    34    18    12   ar
    35    10     4   ar
    36    34    27    1
    37    33    30    1
    38    16    19    1
    39     8    11    1
@<TRIPOS>MOLECULE
*****
 34 39 0 0 0
SMALL
GASTEIGER

@<TRIPOS>ATOM
      1 C         141.4849  140.9362  165.5222 C.ar    1  UNL1        0.0908
      2 C         141.1367  140.7515  166.9695 C.ar    1  UNL1        0.1496
      3 O         140.1441  139.6312  167.0680 O.2     1  UNL1       -0.4534
      4 C         139.8789  139.1236  165.6817 C.ar    1  UNL1        0.1454
      5 C         138.9899  138.0311  165.1659 C.ar    1  UNL1        0.0406
      6 C         138.9296  137.7451  163.6946 C.ar    1  UNL1        0.0395
      7 C         139.7583  138.5517  162.7392 C.ar    1  UNL1        0.1311
      8 O         139.6979  138.2657  161.2679 O.3     1  UNL1       -0.5058
      9 C         140.6473  139.6442  163.2551 C.ar    1  UNL1        0.0308
     10 C         140.7076  139.9301  164.7263 C.ar    1  UNL1        0.0421
     11 H         139.1426  137.5832  160.9457 H       1  UNL1        0.2922
     12 C         141.6848  141.5474  168.1167 C.ar    1  UNL1        0.0349
     13 C         143.0776  141.2901  168.6104 C.ar    1  UNL1        0.0061
     14 C         143.6257  142.0860  169.7576 C.ar    1  UNL1        0.0367
     15 C         142.7810  143.1391  170.4113 C.ar    1  UNL1        0.1337
     16 O         143.3291  143.9349  171.5585 O.3     1  UNL1       -0.5055
     17 C         141.3881  143.3963  169.9176 C.ar    1  UNL1        0.0367
     18 C         140.8400  142.6005  168.7704 C.ar    1  UNL1        0.0061
     19 H         144.1992  143.7742  171.8669 H       1  UNL1        0.2922
     20 O         142.0423  143.3924  164.8847 O.2     1  UNL1       -0.2698
     21 C         142.4424  141.9492  164.9681 C.2     1  UNL1        0.2521
     22 N         143.8002  141.5189  164.4973 N.am    1  UNL1       -0.2759
     23 C         144.9877  142.2174  163.9042 C.3     1  UNL1        0.0955
     24 C         145.7201  140.9104  163.8316 C.3     1  UNL1        0.0430
     25 C         144.5326  140.2119  164.4247 C.3     1  UNL1        0.0955
     26 C         141.4760  140.4507  162.2997 C.3     1  UNL1        0.1023
     27 N         141.1294  141.8854  162.0327 N.3     1  UNL1       -0.2687
     28 C         142.0155  142.8979  161.3694 C.3     1  UNL1        0.0726
     29 C         141.2696  144.1979  161.3089 C.3     1  UNL1        0.0235
     30 C         139.9225  143.9890  161.9349 C.3     1  UNL1        0.0707
     31 C         138.5378  144.0070  162.5113 C.3     1  UNL1        0.1458
     32 O         138.4062  145.4568  162.1497 O.3     1  UNL1       -0.3535
     33 C         139.7909  145.4387  161.5733 C.3     1  UNL1        0.1458
     34 C         139.8358  142.5598  162.3822 C.3     1  UNL1        0.0772
@<TRIPOS>BOND
     1    20    21    2
     2    21     1    1
     3     1     2   ar
     4     2    12    1
     5    12    13   ar
     6    13    14   ar
     7    14    15   ar
     8    15    16    1
     9    15    17   ar
    10    17    18   ar
    11     2     3   ar
    12     3     4   ar
    13     4     5   ar
    14     5     6   ar
    15     6     7   ar
    16     7     8    1
    17     7     9   ar
    18     9    26    1
    19    26    27    1
    20    27    28    1
    21    28    29    1
    22    29    30    1
    23    30    31    1
    24    31    32    1
    25    32    33    1
    26    30    34    1
    27     9    10   ar
    28    21    22   am
    29    22    23    1
    30    23    24    1
    31    24    25    1
    32    10     1   ar
    33    25    22    1
    34    18    12   ar
    35    10     4   ar
    36    34    27    1
    37    33    30    1
    38    16    19    1
    39     8    11    1
@<TRIPOS>MOLECULE
*****
 34 39 0 0 0
SMALL
GASTEIGER

@<TRIPOS>ATOM
      1 C         141.4661  140.7519  165.5639 C.ar    1  UNL1        0.0908
      2 C         141.0717  140.6890  167.0098 C.ar    1  UNL1        0.1496
      3 O         140.0154  139.6342  167.1566 O.2     1  UNL1       -0.4534
      4 C         139.7569  139.0452  165.8015 C.ar    1  UNL1        0.1454
      5 C         138.8210  137.9691  165.3367 C.ar    1  UNL1        0.0406
      6 C         138.7816  137.5838  163.8876 C.ar    1  UNL1        0.0395
      7 C         139.6782  138.2746  162.9033 C.ar    1  UNL1        0.1311
      8 O         139.6388  137.8893  161.4541 O.3     1  UNL1       -0.5058
      9 C         140.6141  139.3507  163.3680 C.ar    1  UNL1        0.0308
     10 C         140.6535  139.7360  164.8171 C.ar    1  UNL1        0.0421
     11 H         139.0541  137.2171  161.1638 H       1  UNL1        0.2922
     12 C         141.6348  141.5327  168.1148 C.ar    1  UNL1        0.0349
     13 C         140.7822  142.5798  168.7679 C.ar    1  UNL1        0.0061
     14 C         141.3453  143.4235  169.8729 C.ar    1  UNL1        0.0367
     15 C         142.7610  143.2202  170.3247 C.ar    1  UNL1        0.1337
     16 O         143.3241  144.0639  171.4297 O.3     1  UNL1       -0.5055
     17 C         143.6137  142.1731  169.6716 C.ar    1  UNL1        0.0367
     18 C         143.0506  141.3294  168.5666 C.ar    1  UNL1        0.0061
     19 H         142.7915  144.7180  171.8377 H       1  UNL1        0.2922
     20 O         143.9050  141.1979  164.7877 O.2     1  UNL1       -0.2698
     21 C         142.4928  141.6696  164.9692 C.2     1  UNL1        0.2521
     22 N         142.1072  143.0591  164.5559 N.am    1  UNL1       -0.2759
     23 C         142.8302  144.2236  163.9467 C.3     1  UNL1        0.0955
     24 C         141.5618  145.0239  163.9714 C.3     1  UNL1        0.0430
     25 C         140.8388  143.8594  164.5805 C.3     1  UNL1        0.0955
     26 C         141.5107  140.0414  162.3837 C.3     1  UNL1        0.1023
     27 N         141.0812  141.3349  161.7573 N.3     1  UNL1       -0.2687
     28 C         139.6879  141.8907  161.7489 C.3     1  UNL1        0.0726
     29 C         139.7152  143.1991  161.0158 C.3     1  UNL1        0.0235
     30 C         141.1253  143.4520  160.5711 C.3     1  UNL1        0.0707
     31 C         142.4508  143.9040  160.0339 C.3     1  UNL1        0.1458
     32 O         141.8060  145.1421  159.4848 O.3     1  UNL1       -0.3535
     33 C         140.4805  144.6899  160.0220 C.3     1  UNL1        0.1458
     34 C         141.9695  142.2998  161.0294 C.3     1  UNL1        0.0772
@<TRIPOS>BOND
     1    20    21    2
     2    21     1    1
     3     1     2   ar
     4     2    12    1
     5    12    13   ar
     6    13    14   ar
     7    14    15   ar
     8    15    16    1
     9    15    17   ar
    10    17    18   ar
    11     2     3   ar
    12     3     4   ar
    13     4     5   ar
    14     5     6   ar
    15     6     7   ar
    16     7     8    1
    17     7     9   ar
    18     9    26    1
    19    26    27    1
    20    27    28    1
    21    28    29    1
    22    29    30    1
    23    30    31    1
    24    31    32    1
    25    32    33    1
    26    30    34    1
    27     9    10   ar
    28    21    22   am
    29    22    23    1
    30    23    24    1
    31    24    25    1
    32    10     1   ar
    33    25    22    1
    34    18    12   ar
    35    10     4   ar
    36    34    27    1
    37    33    30    1
    38    16    19    1
    39     8    11    1
@<TRIPOS>MOLECULE
*****
 34 39 0 0 0
SMALL
GASTEIGER

@<TRIPOS>ATOM
      1 C         141.2949  142.4883  165.5363 C.ar    1  UNL1        0.0908
      2 C         142.1843  142.3438  166.7355 C.ar    1  UNL1        0.1496
      3 O         143.5576  142.8104  166.3529 O.2     1  UNL1       -0.4534
      4 C         143.5169  143.2433  164.9173 C.ar    1  UNL1        0.1454
      5 C         144.5726  143.7930  164.0045 C.ar    1  UNL1        0.0406
      6 C         144.2299  144.1436  162.5869 C.ar    1  UNL1        0.0395
      7 C         142.8314  143.9445  162.0822 C.ar    1  UNL1        0.1311
      8 O         142.4887  144.2951  160.6645 O.3     1  UNL1       -0.5058
      9 C         141.7758  143.3948  162.9950 C.ar    1  UNL1        0.0308
     10 C         142.1185  143.0442  164.4126 C.ar    1  UNL1        0.0421
     11 H         143.1482  144.6385  160.0943 H       1  UNL1        0.2922
     12 C         141.7727  141.8240  168.0810 C.ar    1  UNL1        0.0349
     13 C         142.1470  140.4313  168.4936 C.ar    1  UNL1        0.0061
     14 C         141.7354  139.9115  169.8391 C.ar    1  UNL1        0.0367
     15 C         140.9495  140.7843  170.7720 C.ar    1  UNL1        0.1337
     16 O         140.5379  140.2645  172.1175 O.3     1  UNL1       -0.5055
     17 C         140.5752  142.1770  170.3594 C.ar    1  UNL1        0.0367
     18 C         140.9868  142.6968  169.0139 C.ar    1  UNL1        0.0061
     19 H         140.7717  139.3945  172.3752 H       1  UNL1        0.2922
     20 O         138.8087  143.2254  165.3771 O.2     1  UNL1       -0.2698
     21 C         139.8377  142.1383  165.4720 C.2     1  UNL1        0.2521
     22 N         139.4096  140.7009  165.5026 N.am    1  UNL1       -0.2759
     23 C         138.0918  139.9856  165.4593 C.3     1  UNL1        0.0955
     24 C         138.8041  138.6684  165.5459 C.3     1  UNL1        0.0430
     25 C         140.1218  139.3836  165.5893 C.3     1  UNL1        0.0955
     26 C         140.3773  143.1957  162.4903 C.3     1  UNL1        0.1023
     27 N         139.8643  141.8105  162.2292 N.3     1  UNL1       -0.2687
     28 C         138.4357  141.4337  161.9700 C.3     1  UNL1        0.0726
     29 C         138.3782  139.9493  161.7620 C.3     1  UNL1        0.0235
     30 C         139.7713  139.4086  161.8926 C.3     1  UNL1        0.0707
     31 C         141.0670  138.6581  161.9808 C.3     1  UNL1        0.1458
     32 O         140.3424  137.3745  161.7024 O.3     1  UNL1       -0.3535
     33 C         139.0467  138.1252  161.6143 C.3     1  UNL1        0.1458
     34 C         140.6898  140.5590  162.1813 C.3     1  UNL1        0.0772
@<TRIPOS>BOND
     1    20    21    2
     2    21     1    1
     3     1     2   ar
     4     2    12    1
     5    12    13   ar
     6    13    14   ar
     7    14    15   ar
     8    15    16    1
     9    15    17   ar
    10    17    18   ar
    11     2     3   ar
    12     3     4   ar
    13     4     5   ar
    14     5     6   ar
    15     6     7   ar
    16     7     8    1
    17     7     9   ar
    18     9    26    1
    19    26    27    1
    20    27    28    1
    21    28    29    1
    22    29    30    1
    23    30    31    1
    24    31    32    1
    25    32    33    1
    26    30    34    1
    27     9    10   ar
    28    21    22   am
    29    22    23    1
    30    23    24    1
    31    24    25    1
    32    10     1   ar
    33    25    22    1
    34    18    12   ar
    35    10     4   ar
    36    34    27    1
    37    33    30    1
    38    16    19    1
    39     8    11    1
@<TRIPOS>MOLECULE
*****
 34 39 0 0 0
SMALL
GASTEIGER

@<TRIPOS>ATOM
      1 C         142.1799  142.8096  165.4395 C.ar    1  UNL1        0.0908
      2 C         141.4637  142.4816  166.7161 C.ar    1  UNL1        0.1496
      3 O         140.0639  143.0104  166.6112 O.2     1  UNL1       -0.4534
      4 C         139.9150  143.6652  165.2699 C.ar    1  UNL1        0.1454
      5 C         138.7576  144.3584  164.6143 C.ar    1  UNL1        0.0406
      6 C         138.9079  144.9275  163.2347 C.ar    1  UNL1        0.0395
      7 C         140.2157  144.8033  162.5105 C.ar    1  UNL1        0.1311
      8 O         140.3660  145.3724  161.1308 O.3     1  UNL1       -0.5058
      9 C         141.3731  144.1101  163.1661 C.ar    1  UNL1        0.0308
     10 C         141.2228  143.5410  164.5457 C.ar    1  UNL1        0.0421
     11 H         139.6429  145.8054  160.7213 H       1  UNL1        0.2922
     12 C         142.0452  141.7528  167.8911 C.ar    1  UNL1        0.0349
     13 C         141.6893  140.3160  168.1335 C.ar    1  UNL1        0.0061
     14 C         142.2708  139.5872  169.3085 C.ar    1  UNL1        0.0367
     15 C         143.2081  140.2952  170.2412 C.ar    1  UNL1        0.1337
     16 O         143.7896  139.5665  171.4163 O.3     1  UNL1       -0.5055
     17 C         143.5640  141.7321  169.9989 C.ar    1  UNL1        0.0367
     18 C         142.9825  142.4609  168.8238 C.ar    1  UNL1        0.0061
     19 H         143.5672  138.6689  171.5677 H       1  UNL1        0.2922
     20 O         144.6929  143.4650  165.3690 O.2     1  UNL1       -0.2698
     21 C         143.6033  142.4663  165.1139 C.2     1  UNL1        0.2521
     22 N         143.9372  141.1241  164.5332 N.am    1  UNL1       -0.2759
     23 C         145.1991  140.4427  164.0938 C.3     1  UNL1        0.0955
     24 C         144.4092  139.2261  163.7119 C.3     1  UNL1        0.0430
     25 C         143.1472  139.9074  164.1513 C.3     1  UNL1        0.0955
     26 C         142.6809  143.9859  162.4419 C.3     1  UNL1        0.1023
     27 N         142.8497  142.9493  161.3711 N.3     1  UNL1       -0.2687
     28 C         142.0501  141.6879  161.2311 C.3     1  UNL1        0.0726
     29 C         142.5540  140.9509  160.0257 C.3     1  UNL1        0.0235
     30 C         143.6652  141.7568  159.4207 C.3     1  UNL1        0.0707
     31 C         144.7891  142.3906  158.6558 C.3     1  UNL1        0.1458
     32 O         144.7821  141.2406  157.6927 O.3     1  UNL1       -0.3535
     33 C         143.6582  140.6068  158.4578 C.3     1  UNL1        0.1458
     34 C         143.8480  142.9919  160.2523 C.3     1  UNL1        0.0772
@<TRIPOS>BOND
     1    20    21    2
     2    21     1    1
     3     1     2   ar
     4     2    12    1
     5    12    13   ar
     6    13    14   ar
     7    14    15   ar
     8    15    16    1
     9    15    17   ar
    10    17    18   ar
    11     2     3   ar
    12     3     4   ar
    13     4     5   ar
    14     5     6   ar
    15     6     7   ar
    16     7     8    1
    17     7     9   ar
    18     9    26    1
    19    26    27    1
    20    27    28    1
    21    28    29    1
    22    29    30    1
    23    30    31    1
    24    31    32    1
    25    32    33    1
    26    30    34    1
    27     9    10   ar
    28    21    22   am
    29    22    23    1
    30    23    24    1
    31    24    25    1
    32    10     1   ar
    33    25    22    1
    34    18    12   ar
    35    10     4   ar
    36    34    27    1
    37    33    30    1
    38    16    19    1
    39     8    11    1
@<TRIPOS>MOLECULE
*****
 34 39 0 0 0
SMALL
GASTEIGER

@<TRIPOS>ATOM
      1 C         142.8725  140.7937  165.4297 C.ar    1  UNL1        0.0908
      2 C         142.3352  141.5714  166.5944 C.ar    1  UNL1        0.1496
      3 O         142.5529  143.0296  166.3180 O.2     1  UNL1       -0.4534
      4 C         143.2248  143.1530  164.9826 C.ar    1  UNL1        0.1454
      5 C         143.6822  144.3452  164.1956 C.ar    1  UNL1        0.0406
      6 C         144.3372  144.1555  162.8596 C.ar    1  UNL1        0.0395
      7 C         144.5348  142.7737  162.3106 C.ar    1  UNL1        0.1311
      8 O         145.1898  142.5840  160.9745 O.3     1  UNL1       -0.5058
      9 C         144.0773  141.5815  163.0976 C.ar    1  UNL1        0.0308
     10 C         143.4223  141.7712  164.4336 C.ar    1  UNL1        0.0421
     11 H         145.4755  143.3287  160.4829 H       1  UNL1        0.2922
     12 C         141.6929  140.9926  167.8201 C.ar    1  UNL1        0.0349
     13 C         140.2180  141.1531  168.0409 C.ar    1  UNL1        0.0061
     14 C         139.5757  140.5743  169.2666 C.ar    1  UNL1        0.0367
     15 C         140.4084  139.8350  170.2716 C.ar    1  UNL1        0.1337
     16 O         139.7661  139.2562  171.4974 O.3     1  UNL1       -0.5055
     17 C         141.8833  139.6746  170.0509 C.ar    1  UNL1        0.0367
     18 C         142.5256  140.2534  168.8252 C.ar    1  UNL1        0.0061
     19 H         138.8447  139.3565  171.6353 H       1  UNL1        0.2922
     20 O         144.1137  138.5139  165.5395 O.2     1  UNL1       -0.2698
     21 C         142.8620  139.3006  165.2864 C.2     1  UNL1        0.2521
     22 N         141.5995  138.5941  164.8898 N.am    1  UNL1       -0.2759
     23 C         141.2136  137.1639  164.6542 C.3     1  UNL1        0.0955
     24 C         139.8142  137.5951  164.3291 C.3     1  UNL1        0.0430
     25 C         140.2001  139.0254  164.5646 C.3     1  UNL1        0.0955
     26 C         144.2749  140.1996  162.5486 C.3     1  UNL1        0.1023
     27 N         143.4270  139.7169  161.4093 N.3     1  UNL1       -0.2687
     28 C         143.9180  139.3386  160.0433 C.3     1  UNL1        0.0726
     29 C         142.7337  138.9156  159.2257 C.3     1  UNL1        0.0235
     30 C         141.5107  139.0325  160.0863 C.3     1  UNL1        0.0707
     31 C         140.1702  139.0724  160.7582 C.3     1  UNL1        0.1458
     32 O         139.5240  138.5773  159.4982 O.3     1  UNL1       -0.3535
     33 C         140.8646  138.5374  158.8265 C.3     1  UNL1        0.1458
     34 C         141.9392  139.5277  161.4359 C.3     1  UNL1        0.0772
@<TRIPOS>BOND
     1    20    21    2
     2    21     1    1
     3     1     2   ar
     4     2    12    1
     5    12    13   ar
     6    13    14   ar
     7    14    15   ar
     8    15    16    1
     9    15    17   ar
    10    17    18   ar
    11     2     3   ar
    12     3     4   ar
    13     4     5   ar
    14     5     6   ar
    15     6     7   ar
    16     7     8    1
    17     7     9   ar
    18     9    26    1
    19    26    27    1
    20    27    28    1
    21    28    29    1
    22    29    30    1
    23    30    31    1
    24    31    32    1
    25    32    33    1
    26    30    34    1
    27     9    10   ar
    28    21    22   am
    29    22    23    1
    30    23    24    1
    31    24    25    1
    32    10     1   ar
    33    25    22    1
    34    18    12   ar
    35    10     4   ar
    36    34    27    1
    37    33    30    1
    38    16    19    1
    39     8    11    1
