@<TRIPOS>MOLECULE
*****
 22 24 0 0 0
SMALL
GASTEIGER

@<TRIPOS>ATOM
      1 C         141.6036  142.4015  166.6499 C.ar    1  UNL1        0.0002
      2 C         143.0994  142.3288  166.7355 C.ar    1  UNL1        0.0031
      3 C         143.9423  142.8932  165.6305 C.ar    1  UNL1        0.0369
      4 C         143.2894  143.5305  164.4399 C.ar    1  UNL1        0.1386
      5 C         141.7936  143.6032  164.3543 C.ar    1  UNL1        0.0369
      6 C         140.9507  143.0388  165.4593 C.ar    1  UNL1        0.0031
      7 C         139.0751  140.7081  169.9648 C.ar    1  UNL1        0.0000
      8 C         139.7841  142.0161  170.1557 C.ar    1  UNL1        0.0000
      9 C         140.6270  142.5805  169.0507 C.ar    1  UNL1        0.0000
     10 C         140.7608  141.8371  167.7548 C.ar    1  UNL1        0.0000
     11 C         140.0517  140.5291  167.5640 C.ar    1  UNL1        0.0000
     12 C         139.2089  139.9647  168.6689 C.ar    1  UNL1        0.0000
     13 O         144.1322  144.0949  163.3350 O.3     1  UNL1       -0.4754
     14 C         144.4804  143.2457  162.1486 C.3     1  UNL1        0.2068
     15 C         145.2368  141.9645  162.3394 C.3     1  UNL1        0.0646
     16 C         144.5399  140.6483  162.1603 C.3     1  UNL1        0.0759
     17 N         143.8467  140.0023  163.3231 N.3     1  UNL1       -0.2726
     18 C         144.6517  139.4130  164.4431 C.3     1  UNL1        0.0721
     19 C         143.9584  138.7670  165.6059 C.3     1  UNL1        0.0174
     20 C         142.4602  138.7104  165.6487 C.3     1  UNL1        0.0029
     21 C         141.6550  139.2998  164.5286 C.3     1  UNL1        0.0174
     22 C         142.3483  139.9457  163.3658 C.3     1  UNL1        0.0721
@<TRIPOS>BOND
     1     7     8   ar
     2     8     9   ar
     3     9    10   ar
     4    10     1    1
     5     1     2   ar
     6     2     3   ar
     7     3     4   ar
     8     4    13    1
     9    13    14    1
    10    14    15    1
    11    15    16    1
    12    16    17    1
    13    17    18    1
    14    18    19    1
    15    19    20    1
    16    20    21    1
    17    21    22    1
    18     4     5   ar
    19     5     6   ar
    20    10    11   ar
    21    11    12   ar
    22    12     7   ar
    23     6     1   ar
    24    22    17    1
@<TRIPOS>MOLECULE
*****
 22 24 0 0 0
SMALL
GASTEIGER

@<TRIPOS>ATOM
      1 C         141.7596  140.5205  166.7658 C.ar    1  UNL1        0.0002
      2 C         142.4287  139.1828  166.8790 C.ar    1  UNL1        0.0031
      3 C         143.1354  138.5950  165.6937 C.ar    1  UNL1        0.0369
      4 C         143.1730  139.3448  164.3951 C.ar    1  UNL1        0.1386
      5 C         142.5039  140.6825  164.2820 C.ar    1  UNL1        0.0369
      6 C         141.7972  141.2704  165.4673 C.ar    1  UNL1        0.0031
      7 C         139.6395  142.2839  170.3219 C.ar    1  UNL1        0.0000
      8 C         140.5422  143.1417  169.4856 C.ar    1  UNL1        0.0000
      9 C         141.2489  142.5539  168.3003 C.ar    1  UNL1        0.0000
     10 C         141.0529  141.1083  167.9512 C.ar    1  UNL1        0.0000
     11 C         140.1503  140.2505  168.7875 C.ar    1  UNL1        0.0000
     12 C         139.4436  140.8384  169.9729 C.ar    1  UNL1        0.0000
     13 O         143.8797  138.7570  163.2098 O.3     1  UNL1       -0.4754
     14 C         143.0907  138.2829  162.0254 C.3     1  UNL1        0.2068
     15 C         141.7784  137.5855  162.2289 C.3     1  UNL1        0.0646
     16 C         140.4937  138.3436  162.0706 C.3     1  UNL1        0.0759
     17 N         139.7177  138.7657  163.2829 N.3     1  UNL1       -0.2726
     18 C         138.9825  140.0732  163.2850 C.3     1  UNL1        0.0721
     19 C         138.2065  140.4953  164.4973 C.3     1  UNL1        0.0174
     20 C         138.1657  139.6100  165.7074 C.3     1  UNL1        0.0029
     21 C         138.9009  138.3025  165.7054 C.3     1  UNL1        0.0174
     22 C         139.6769  137.8803  164.4931 C.3     1  UNL1        0.0721
@<TRIPOS>BOND
     1     7     8   ar
     2     8     9   ar
     3     9    10   ar
     4    10     1    1
     5     1     2   ar
     6     2     3   ar
     7     3     4   ar
     8     4    13    1
     9    13    14    1
    10    14    15    1
    11    15    16    1
    12    16    17    1
    13    17    18    1
    14    18    19    1
    15    19    20    1
    16    20    21    1
    17    21    22    1
    18     4     5   ar
    19     5     6   ar
    20    10    11   ar
    21    11    12   ar
    22    12     7   ar
    23     6     1   ar
    24    22    17    1
@<TRIPOS>MOLECULE
*****
 22 24 0 0 0
SMALL
GASTEIGER

@<TRIPOS>ATOM
      1 C         140.1470  141.6614  166.8239 C.ar    1  UNL1        0.0002
      2 C         139.4741  140.3228  166.8962 C.ar    1  UNL1        0.0031
      3 C         138.6055  139.8579  165.7650 C.ar    1  UNL1        0.0369
      4 C         138.4099  140.7317  164.5616 C.ar    1  UNL1        0.1386
      5 C         139.0828  142.0703  164.4893 C.ar    1  UNL1        0.0369
      6 C         139.9513  142.5351  165.6205 C.ar    1  UNL1        0.0031
      7 C         142.7526  143.0560  170.2174 C.ar    1  UNL1        0.0000
      8 C         141.3393  143.5462  170.1065 C.ar    1  UNL1        0.0000
      9 C         140.4708  143.0814  168.9754 C.ar    1  UNL1        0.0000
     10 C         141.0155  142.1262  167.9551 C.ar    1  UNL1        0.0000
     11 C         142.4287  141.6360  168.0660 C.ar    1  UNL1        0.0000
     12 C         143.2973  142.1009  169.1972 C.ar    1  UNL1        0.0000
     13 O         137.5414  140.2668  163.4304 O.3     1  UNL1       -0.4754
     14 C         138.1316  139.4532  162.3170 C.3     1  UNL1        0.2068
     15 C         138.6430  138.0695  162.5888 C.3     1  UNL1        0.0646
     16 C         140.1082  137.7734  162.4632 C.3     1  UNL1        0.0759
     17 N         141.0879  138.4281  163.3914 N.3     1  UNL1       -0.2726
     18 C         141.4999  137.7361  164.6568 C.3     1  UNL1        0.0721
     19 C         142.4796  138.3909  165.5849 C.3     1  UNL1        0.0174
     20 C         143.0473  139.7377  165.2477 C.3     1  UNL1        0.0029
     21 C         142.6353  140.4298  163.9822 C.3     1  UNL1        0.0174
     22 C         141.6556  139.7750  163.0540 C.3     1  UNL1        0.0721
@<TRIPOS>BOND
     1     7     8   ar
     2     8     9   ar
     3     9    10   ar
     4    10     1    1
     5     1     2   ar
     6     2     3   ar
     7     3     4   ar
     8     4    13    1
     9    13    14    1
    10    14    15    1
    11    15    16    1
    12    16    17    1
    13    17    18    1
    14    18    19    1
    15    19    20    1
    16    20    21    1
    17    21    22    1
    18     4     5   ar
    19     5     6   ar
    20    10    11   ar
    21    11    12   ar
    22    12     7   ar
    23     6     1   ar
    24    22    17    1
@<TRIPOS>MOLECULE
*****
 22 24 0 0 0
SMALL
GASTEIGER

@<TRIPOS>ATOM
      1 C         139.9223  140.0406  166.6078 C.ar    1  UNL1        0.0002
      2 C         141.1769  139.8120  165.8180 C.ar    1  UNL1        0.0031
      3 C         141.1490  138.9317  164.6039 C.ar    1  UNL1        0.0369
      4 C         139.8664  138.2799  164.1794 C.ar    1  UNL1        0.1386
      5 C         138.6118  138.5085  164.9691 C.ar    1  UNL1        0.0369
      6 C         138.6398  139.3889  166.1833 C.ar    1  UNL1        0.0031
      7 C         140.0062  142.6817  170.2503 C.ar    1  UNL1        0.0000
      8 C         140.5478  143.1860  168.9456 C.ar    1  UNL1        0.0000
      9 C         140.5198  142.3057  167.7314 C.ar    1  UNL1        0.0000
     10 C         139.9503  140.9210  167.8219 C.ar    1  UNL1        0.0000
     11 C         139.4087  140.4166  169.1266 C.ar    1  UNL1        0.0000
     12 C         139.4367  141.2970  170.3408 C.ar    1  UNL1        0.0000
     13 O         139.8385  137.3996  162.9652 O.3     1  UNL1       -0.4754
     14 C         139.4834  137.9779  161.6276 C.3     1  UNL1        0.2068
     15 C         138.1475  138.6286  161.4225 C.3     1  UNL1        0.0646
     16 C         138.0631  140.1054  161.1730 C.3     1  UNL1        0.0759
     17 N         138.4138  141.0717  162.2653 N.3     1  UNL1       -0.2726
     18 C         137.3592  141.5300  163.2285 C.3     1  UNL1        0.0721
     19 C         137.7100  142.4964  164.3208 C.3     1  UNL1        0.0174
     20 C         139.1154  143.0045  164.4499 C.3     1  UNL1        0.0029
     21 C         140.1701  142.5462  163.4867 C.3     1  UNL1        0.0174
     22 C         139.8193  141.5798  162.3944 C.3     1  UNL1        0.0721
@<TRIPOS>BOND
     1     7     8   ar
     2     8     9   ar
     3     9    10   ar
     4    10     1    1
     5     1     2   ar
     6     2     3   ar
     7     3     4   ar
     8     4    13    1
     9    13    14    1
    10    14    15    1
    11    15    16    1
    12    16    17    1
    13    17    18    1
    14    18    19    1
    15    19    20    1
    16    20    21    1
    17    21    22    1
    18     4     5   ar
    19     5     6   ar
    20    10    11   ar
    21    11    12   ar
    22    12     7   ar
    23     6     1   ar
    24    22    17    1
@<TRIPOS>MOLECULE
*****
 22 24 0 0 0
SMALL
GASTEIGER

@<TRIPOS>ATOM
      1 C         139.9824  139.9114  166.5577 C.ar    1  UNL1        0.0002
      2 C         138.7194  139.2781  166.0542 C.ar    1  UNL1        0.0031
      3 C         138.7480  138.4261  164.8200 C.ar    1  UNL1        0.0369
      4 C         140.0396  138.2075  164.0893 C.ar    1  UNL1        0.1386
      5 C         141.3026  138.8408  164.5928 C.ar    1  UNL1        0.0369
      6 C         141.2740  139.6928  165.8270 C.ar    1  UNL1        0.0031
      7 C         139.8967  142.4674  170.2604 C.ar    1  UNL1        0.0000
      8 C         139.2800  141.1002  170.2784 C.ar    1  UNL1        0.0000
      9 C         139.3085  140.2482  169.0442 C.ar    1  UNL1        0.0000
     10 C         139.9539  140.7634  167.7919 C.ar    1  UNL1        0.0000
     11 C         140.5706  142.1306  167.7740 C.ar    1  UNL1        0.0000
     12 C         140.5420  142.9826  169.0082 C.ar    1  UNL1        0.0000
     13 O         140.0682  137.3555  162.8551 O.3     1  UNL1       -0.4754
     14 C         139.6639  137.9370  161.5328 C.3     1  UNL1        0.2068
     15 C         140.2160  139.2614  161.0956 C.3     1  UNL1        0.0646
     16 C         139.3256  140.4678  161.0526 C.3     1  UNL1        0.0759
     17 N         139.1352  141.3036  162.2835 N.3     1  UNL1       -0.2726
     18 C         140.3100  141.9937  162.9107 C.3     1  UNL1        0.0721
     19 C         140.1196  142.8295  164.1416 C.3     1  UNL1        0.0174
     20 C         138.7542  142.9752  164.7454 C.3     1  UNL1        0.0029
     21 C         137.5792  142.2851  164.1182 C.3     1  UNL1        0.0174
     22 C         137.7697  141.4493  162.8873 C.3     1  UNL1        0.0721
@<TRIPOS>BOND
     1     7     8   ar
     2     8     9   ar
     3     9    10   ar
     4    10     1    1
     5     1     2   ar
     6     2     3   ar
     7     3     4   ar
     8     4    13    1
     9    13    14    1
    10    14    15    1
    11    15    16    1
    12    16    17    1
    13    17    18    1
    14    18    19    1
    15    19    20    1
    16    20    21    1
    17    21    22    1
    18     4     5   ar
    19     5     6   ar
    20    10    11   ar
    21    11    12   ar
    22    12     7   ar
    23     6     1   ar
    24    22    17    1
@<TRIPOS>MOLECULE
*****
 22 24 0 0 0
SMALL
GASTEIGER

@<TRIPOS>ATOM
      1 C         139.9325  140.9488  166.7164 C.ar    1  UNL1        0.0002
      2 C         139.0460  139.8094  166.3090 C.ar    1  UNL1        0.0031
      3 C         138.1447  139.9490  165.1182 C.ar    1  UNL1        0.0369
      4 C         138.1299  141.2280  164.3346 C.ar    1  UNL1        0.1386
      5 C         139.0164  142.3674  164.7420 C.ar    1  UNL1        0.0369
      6 C         139.9177  142.2277  165.9329 C.ar    1  UNL1        0.0031
      7 C         142.6364  140.5299  170.2890 C.ar    1  UNL1        0.0000
      8 C         143.0627  141.3672  169.1198 C.ar    1  UNL1        0.0000
      9 C         142.1614  141.5068  167.9289 C.ar    1  UNL1        0.0000
     10 C         140.8338  140.8091  167.9072 C.ar    1  UNL1        0.0000
     11 C         140.4075  139.9718  169.0764 C.ar    1  UNL1        0.0000
     12 C         141.3088  139.8322  170.2673 C.ar    1  UNL1        0.0000
     13 O         137.2286  141.3676  163.1438 O.3     1  UNL1       -0.4754
     14 C         137.6511  140.8157  161.8146 C.3     1  UNL1        0.2068
     15 C         139.1088  140.6828  161.4868 C.3     1  UNL1        0.0646
     16 C         139.7671  139.3355  161.5282 C.3     1  UNL1        0.0759
     17 N         140.5717  138.9305  162.7276 N.3     1  UNL1       -0.2726
     18 C         141.5640  139.8853  163.3223 C.3     1  UNL1        0.0721
     19 C         142.3686  139.4803  164.5217 C.3     1  UNL1        0.0174
     20 C         142.1809  138.1205  165.1264 C.3     1  UNL1        0.0029
     21 C         141.1886  137.1657  164.5317 C.3     1  UNL1        0.0174
     22 C         140.3840  137.5707  163.3323 C.3     1  UNL1        0.0721
@<TRIPOS>BOND
     1     7     8   ar
     2     8     9   ar
     3     9    10   ar
     4    10     1    1
     5     1     2   ar
     6     2     3   ar
     7     3     4   ar
     8     4    13    1
     9    13    14    1
    10    14    15    1
    11    15    16    1
    12    16    17    1
    13    17    18    1
    14    18    19    1
    15    19    20    1
    16    20    21    1
    17    21    22    1
    18     4     5   ar
    19     5     6   ar
    20    10    11   ar
    21    11    12   ar
    22    12     7   ar
    23     6     1   ar
    24    22    17    1
@<TRIPOS>MOLECULE
*****
 22 24 0 0 0
SMALL
GASTEIGER

@<TRIPOS>ATOM
      1 C         141.2509  142.1429  166.5569 C.ar    1  UNL1        0.0002
      2 C         140.1235  143.1291  166.6348 C.ar    1  UNL1        0.0031
      3 C         139.5996  143.7698  165.3838 C.ar    1  UNL1        0.0369
      4 C         140.2031  143.4242  164.0548 C.ar    1  UNL1        0.1386
      5 C         141.3305  142.4380  163.9769 C.ar    1  UNL1        0.0369
      6 C         141.8544  141.7973  165.2279 C.ar    1  UNL1        0.0031
      7 C         142.8227  140.2209  170.3099 C.ar    1  UNL1        0.0000
      8 C         141.7094  139.5703  169.5437 C.ar    1  UNL1        0.0000
      9 C         141.1854  140.2109  168.2927 C.ar    1  UNL1        0.0000
     10 C         141.7748  141.5022  167.8079 C.ar    1  UNL1        0.0000
     11 C         142.8881  142.1529  168.5741 C.ar    1  UNL1        0.0000
     12 C         143.4121  141.5122  169.8251 C.ar    1  UNL1        0.0000
     13 O         139.6792  144.0649  162.8038 O.3     1  UNL1       -0.4754
     14 C         138.7979  143.2846  161.8740 C.3     1  UNL1        0.2068
     15 C         137.7245  142.3952  162.4278 C.3     1  UNL1        0.0646
     16 C         137.7859  140.9139  162.1992 C.3     1  UNL1        0.0759
     17 N         138.1561  139.9958  163.3262 N.3     1  UNL1       -0.2726
     18 C         138.6015  138.5933  163.0356 C.3     1  UNL1        0.0721
     19 C         138.9717  137.6752  164.1626 C.3     1  UNL1        0.0174
     20 C         138.8965  138.1597  165.5802 C.3     1  UNL1        0.0029
     21 C         138.4510  139.5623  165.8709 C.3     1  UNL1        0.0174
     22 C         138.0809  140.4803  164.7439 C.3     1  UNL1        0.0721
@<TRIPOS>BOND
     1     7     8   ar
     2     8     9   ar
     3     9    10   ar
     4    10     1    1
     5     1     2   ar
     6     2     3   ar
     7     3     4   ar
     8     4    13    1
     9    13    14    1
    10    14    15    1
    11    15    16    1
    12    16    17    1
    13    17    18    1
    14    18    19    1
    15    19    20    1
    16    20    21    1
    17    21    22    1
    18     4     5   ar
    19     5     6   ar
    20    10    11   ar
    21    11    12   ar
    22    12     7   ar
    23     6     1   ar
    24    22    17    1
@<TRIPOS>MOLECULE
*****
 22 24 0 0 0
SMALL
GASTEIGER

@<TRIPOS>ATOM
      1 C         139.6843  140.4992  165.7071 C.ar    1  UNL1        0.0002
      2 C         138.3467  140.3917  165.0369 C.ar    1  UNL1        0.0031
      3 C         138.2585  139.9555  163.6044 C.ar    1  UNL1        0.0369
      4 C         139.5078  139.6268  162.8422 C.ar    1  UNL1        0.1386
      5 C         140.8454  139.7343  163.5124 C.ar    1  UNL1        0.0369
      6 C         140.9337  140.1705  164.9448 C.ar    1  UNL1        0.0031
      7 C         139.9492  141.8078  170.0045 C.ar    1  UNL1        0.0000
      8 C         140.4716  142.6978  168.9159 C.ar    1  UNL1        0.0000
      9 C         140.3833  142.2616  167.4834 C.ar    1  UNL1        0.0000
     10 C         139.7726  140.9354  167.1395 C.ar    1  UNL1        0.0000
     11 C         139.2502  140.0454  168.2281 C.ar    1  UNL1        0.0000
     12 C         139.3385  140.4817  169.6606 C.ar    1  UNL1        0.0000
     13 O         139.4195  139.1906  161.4097 O.3     1  UNL1       -0.4754
     14 C         139.0441  140.1796  160.3463 C.3     1  UNL1        0.2068
     15 C         139.5609  141.5861  160.4141 C.3     1  UNL1        0.0646
     16 C         138.6748  142.6873  160.9166 C.3     1  UNL1        0.0759
     17 N         138.8827  143.2486  162.2919 N.3     1  UNL1       -0.2726
     18 C         140.2727  143.4291  162.8261 C.3     1  UNL1        0.0721
     19 C         140.4806  143.9904  164.2015 C.3     1  UNL1        0.0174
     20 C         139.2986  144.3713  165.0427 C.3     1  UNL1        0.0029
     21 C         137.9085  144.1909  164.5085 C.3     1  UNL1        0.0174
     22 C         137.7006  143.6295  163.1332 C.3     1  UNL1        0.0721
@<TRIPOS>BOND
     1     7     8   ar
     2     8     9   ar
     3     9    10   ar
     4    10     1    1
     5     1     2   ar
     6     2     3   ar
     7     3     4   ar
     8     4    13    1
     9    13    14    1
    10    14    15    1
    11    15    16    1
    12    16    17    1
    13    17    18    1
    14    18    19    1
    15    19    20    1
    16    20    21    1
    17    21    22    1
    18     4     5   ar
    19     5     6   ar
    20    10    11   ar
    21    11    12   ar
    22    12     7   ar
    23     6     1   ar
    24    22    17    1
@<TRIPOS>MOLECULE
*****
 22 24 0 0 0
SMALL
GASTEIGER

@<TRIPOS>ATOM
      1 C         139.2871  140.2182  165.9470 C.ar    1  UNL1        0.0002
      2 C         138.5077  141.0098  164.9391 C.ar    1  UNL1        0.0031
      3 C         138.1019  140.3781  163.6405 C.ar    1  UNL1        0.0369
      4 C         138.4755  138.9548  163.3498 C.ar    1  UNL1        0.1386
      5 C         139.2549  138.1632  164.3577 C.ar    1  UNL1        0.0369
      6 C         139.6607  138.7949  165.6563 C.ar    1  UNL1        0.0031
      7 C         140.5044  142.1134  169.8427 C.ar    1  UNL1        0.0000
      8 C         140.7740  142.8210  168.5479 C.ar    1  UNL1        0.0000
      9 C         140.3682  142.1893  167.2493 C.ar    1  UNL1        0.0000
     10 C         139.6928  140.8500  167.2456 C.ar    1  UNL1        0.0000
     11 C         139.4232  140.1424  168.5404 C.ar    1  UNL1        0.0000
     12 C         139.8290  140.7741  169.8389 C.ar    1  UNL1        0.0000
     13 O         138.0697  138.3231  162.0513 O.3     1  UNL1       -0.4754
     14 C         139.0935  138.0840  160.9814 C.3     1  UNL1        0.2068
     15 C         140.2338  139.0427  160.8068 C.3     1  UNL1        0.0646
     16 C         141.5901  138.7016  161.3493 C.3     1  UNL1        0.0759
     17 N         142.0740  139.3427  162.6162 N.3     1  UNL1       -0.2726
     18 C         141.7748  140.7873  162.8875 C.3     1  UNL1        0.0721
     19 C         142.2587  141.4284  164.1543 C.3     1  UNL1        0.0174
     20 C         143.0418  140.6249  165.1498 C.3     1  UNL1        0.0029
     21 C         143.3411  139.1802  164.8785 C.3     1  UNL1        0.0174
     22 C         142.8572  138.5392  163.6117 C.3     1  UNL1        0.0721
@<TRIPOS>BOND
     1     7     8   ar
     2     8     9   ar
     3     9    10   ar
     4    10     1    1
     5     1     2   ar
     6     2     3   ar
     7     3     4   ar
     8     4    13    1
     9    13    14    1
    10    14    15    1
    11    15    16    1
    12    16    17    1
    13    17    18    1
    14    18    19    1
    15    19    20    1
    16    20    21    1
    17    21    22    1
    18     4     5   ar
    19     5     6   ar
    20    10    11   ar
    21    11    12   ar
    22    12     7   ar
    23     6     1   ar
    24    22    17    1
