@<TRIPOS>MOLECULE
*****
 45 51 0 0 0
SMALL
GASTEIGER

@<TRIPOS>ATOM
      1 C         143.1949  139.5072  160.6288 C.ar    1  UNL1        0.0508
      2 C         143.8606  139.8246  159.3225 C.ar    1  UNL1        0.0147
      3 C         143.0928  139.7006  158.0399 C.ar    1  UNL1        0.0019
      4 C         141.6595  139.2592  158.0635 C.ar    1  UNL1        0.0090
      5 C         140.9938  138.9418  159.3697 C.ar    1  UNL1        0.0307
      6 S         139.6040  138.4868  159.7035 S.2     1  UNL1       -0.0869
      7 C         139.5128  138.3296  161.1925 C.ar    1  UNL1        0.0295
      8 C         138.3878  137.9069  162.0901 C.ar    1  UNL1        0.0065
      9 C         138.5963  137.8420  163.5741 C.ar    1  UNL1        0.0005
     10 C         139.9298  138.1999  164.1605 C.ar    1  UNL1        0.0000
     11 C         141.0547  138.6226  163.2629 C.ar    1  UNL1        0.0006
     12 C         140.8462  138.6875  161.7789 C.ar    1  UNL1        0.0077
     13 C         141.7615  139.0658  160.6523 C.ar    1  UNL1        0.0200
     14 C         140.8917  139.1352  156.7808 C.ar    1  UNL1        0.0352
     15 C         140.1176  140.3070  156.2538 C.ar    1  UNL1        0.0031
     16 C         139.3499  140.1831  154.9712 C.ar    1  UNL1        0.0003
     17 C         139.3562  138.8873  154.2155 C.ar    1  UNL1        0.0062
     18 C         140.1304  137.7156  154.7425 C.ar    1  UNL1        0.0736
     19 C         140.1367  136.4198  153.9868 C.ar    1  UNL1        0.2030
     20 O         139.3690  136.2958  152.7042 O.2     1  UNL1       -0.2863
     21 C         140.9108  135.2481  154.5138 C.ar    1  UNL1        0.0955
     22 C         141.6786  135.3720  155.7965 C.ar    1  UNL1        0.2024
     23 O         141.6722  136.6678  156.5522 O.2     1  UNL1       -0.4398
     24 C         140.8981  137.8395  156.0252 C.ar    1  UNL1        0.1498
     25 N         142.4527  134.2003  156.3235 N.pl3   1  UNL1       -0.2742
     26 C         142.0741  132.8071  155.9167 C.3     1  UNL1        0.1257
     27 C         142.8482  131.6353  156.4437 C.3     1  UNL1        0.1637
     28 O         144.0010  131.8568  157.3775 O.3     1  UNL1       -0.3501
     29 C         144.3796  133.2500  157.7843 C.3     1  UNL1        0.1637
     30 C         143.6055  134.4217  157.2573 C.3     1  UNL1        0.1257
     31 O         142.9450  141.9911  162.2925 O.2     1  UNL1       -0.2733
     32 C         143.8377  140.8732  162.7433 C.2     1  UNL1        0.2425
     33 N         143.9627  139.6312  161.9115 N.am    1  UNL1       -0.2828
     34 H         144.5487  138.8975  162.2074 H       1  UNL1        0.1549
     35 C         144.6055  140.9972  164.0259 C.3     1  UNL1        0.1588
     36 N         143.8857  140.9308  165.3402 N.3     1  UNL1       -0.2626
     37 C         143.4630  139.6038  165.8977 C.3     1  UNL1        0.0900
     38 C         142.7433  139.5374  167.2120 C.3     1  UNL1        0.0897
     39 N         142.4462  140.7979  167.9690 N.3     1  UNL1       -0.2682
     40 C         142.8688  142.1249  167.4115 C.3     1  UNL1        0.0897
     41 C         143.5886  142.1913  166.0972 C.3     1  UNL1        0.0900
     42 C         141.7264  140.7315  169.2833 C.3     1  UNL1        0.1043
     43 C         142.4517  140.2716  170.5131 C.3     1  UNL1        0.1544
     44 O         142.0334  140.7750  171.8628 O.3     1  UNL1       -0.3805
     45 H         142.2051  141.7280  171.9199 H       1  UNL1        0.2105
@<TRIPOS>BOND
     1    31    32    2
     2    32    35    1
     3    35    36    1
     4    36    37    1
     5    37    38    1
     6    38    39    1
     7    39    42    1
     8    42    43    1
     9    43    44    1
    10    39    40    1
    11    40    41    1
    12    32    33   am
    13    33     1    1
    14     1     2   ar
    15     2     3   ar
    16     3     4   ar
    17     4    14    1
    18    14    15   ar
    19    15    16   ar
    20    16    17   ar
    21    17    18   ar
    22    18    19   ar
    23    19    20    2
    24    19    21   ar
    25    21    22   ar
    26    22    25    1
    27    25    26    1
    28    26    27    1
    29    27    28    1
    30    28    29    1
    31    29    30    1
    32    22    23   ar
    33    23    24   ar
    34     4     5   ar
    35     5     6   ar
    36     6     7   ar
    37     7     8   ar
    38     8     9   ar
    39     9    10   ar
    40    10    11   ar
    41    11    12   ar
    42    12    13   ar
    43    41    36    1
    44    13     1   ar
    45    24    14   ar
    46    13     5   ar
    47    24    18   ar
    48    12     7   ar
    49    30    25    1
    50    44    45    1
    51    33    34    1
@<TRIPOS>MOLECULE
*****
 45 51 0 0 0
SMALL
GASTEIGER

@<TRIPOS>ATOM
      1 C         142.2802  138.6154  159.7248 C.ar    1  UNL1        0.0508
      2 C         143.4086  138.1436  160.5934 C.ar    1  UNL1        0.0147
      3 C         143.8838  138.9945  161.7335 C.ar    1  UNL1        0.0019
      4 C         143.2308  140.3173  162.0052 C.ar    1  UNL1        0.0090
      5 C         142.1025  140.7891  161.1366 C.ar    1  UNL1        0.0307
      6 S         141.2713  142.0375  161.1612 S.2     1  UNL1       -0.0869
      7 C         140.2822  141.9581  160.0362 C.ar    1  UNL1        0.0295
      8 C         139.2098  142.8995  159.5743 C.ar    1  UNL1        0.0065
      9 C         138.3573  142.5436  158.3926 C.ar    1  UNL1        0.0005
     10 C         138.5773  141.2461  157.6727 C.ar    1  UNL1        0.0000
     11 C         139.6498  140.3046  158.1346 C.ar    1  UNL1        0.0006
     12 C         140.5022  140.6606  159.3164 C.ar    1  UNL1        0.0077
     13 C         141.6272  139.9382  159.9965 C.ar    1  UNL1        0.0200
     14 C         143.7061  141.1682  163.1453 C.ar    1  UNL1        0.0352
     15 C         144.8982  142.0615  162.9685 C.ar    1  UNL1        0.0031
     16 C         145.3735  142.9124  164.1086 C.ar    1  UNL1        0.0003
     17 C         144.6568  142.8702  165.4256 C.ar    1  UNL1        0.0062
     18 C         143.4648  141.9770  165.6025 C.ar    1  UNL1        0.0736
     19 C         142.7481  141.9348  166.9195 C.ar    1  UNL1        0.2030
     20 O         143.2234  142.7857  168.0597 O.2     1  UNL1       -0.2863
     21 C         141.5561  141.0416  167.0964 C.ar    1  UNL1        0.0955
     22 C         141.0807  140.1906  165.9562 C.ar    1  UNL1        0.2024
     23 O         141.7974  140.2328  164.6391 O.2     1  UNL1       -0.4398
     24 C         142.9894  141.1260  164.4623 C.ar    1  UNL1        0.1498
     25 N         139.8887  139.2974  166.1330 N.pl3   1  UNL1       -0.2742
     26 C         139.6872  138.1257  165.2186 C.3     1  UNL1        0.1257
     27 C         138.4952  137.2325  165.3955 C.3     1  UNL1        0.1637
     28 O         137.5047  137.5110  166.4868 O.3     1  UNL1       -0.3501
     29 C         137.7061  138.6828  167.4013 C.3     1  UNL1        0.1637
     30 C         138.8981  139.5760  167.2245 C.3     1  UNL1        0.1257
     31 O         143.7353  138.6728  157.1019 O.2     1  UNL1       -0.2733
     32 C         142.5326  137.7932  157.2732 C.2     1  UNL1        0.2425
     33 N         141.8050  137.7644  158.5846 N.am    1  UNL1       -0.2828
     34 H         141.0155  137.1870  158.6970 H       1  UNL1        0.1549
     35 C         142.0573  136.9422  156.1331 C.3     1  UNL1        0.1588
     36 N         142.2195  135.4521  156.1910 N.3     1  UNL1       -0.2626
     37 C         143.2398  134.8437  157.1070 C.3     1  UNL1        0.0900
     38 C         143.4020  133.3536  157.1649 C.3     1  UNL1        0.0897
     39 N         142.5439  132.4719  156.3069 N.3     1  UNL1       -0.2682
     40 C         141.5235  133.0803  155.3909 C.3     1  UNL1        0.0897
     41 C         141.3614  134.5703  155.3330 C.3     1  UNL1        0.0900
     42 C         142.7061  130.9818  156.3648 C.3     1  UNL1        0.1043
     43 C         143.7647  130.3760  157.2378 C.3     1  UNL1        0.1544
     44 O         143.3955  129.7933  158.5698 O.3     1  UNL1       -0.3805
     45 H         143.0855  130.5002  159.1572 H       1  UNL1        0.2105
@<TRIPOS>BOND
     1    31    32    2
     2    32    35    1
     3    35    36    1
     4    36    37    1
     5    37    38    1
     6    38    39    1
     7    39    42    1
     8    42    43    1
     9    43    44    1
    10    39    40    1
    11    40    41    1
    12    32    33   am
    13    33     1    1
    14     1     2   ar
    15     2     3   ar
    16     3     4   ar
    17     4    14    1
    18    14    15   ar
    19    15    16   ar
    20    16    17   ar
    21    17    18   ar
    22    18    19   ar
    23    19    20    2
    24    19    21   ar
    25    21    22   ar
    26    22    25    1
    27    25    26    1
    28    26    27    1
    29    27    28    1
    30    28    29    1
    31    29    30    1
    32    22    23   ar
    33    23    24   ar
    34     4     5   ar
    35     5     6   ar
    36     6     7   ar
    37     7     8   ar
    38     8     9   ar
    39     9    10   ar
    40    10    11   ar
    41    11    12   ar
    42    12    13   ar
    43    41    36    1
    44    13     1   ar
    45    24    14   ar
    46    13     5   ar
    47    24    18   ar
    48    12     7   ar
    49    30    25    1
    50    44    45    1
    51    33    34    1
@<TRIPOS>MOLECULE
*****
 45 51 0 0 0
SMALL
GASTEIGER

@<TRIPOS>ATOM
      1 C         139.4236  141.9094  162.5344 C.ar    1  UNL1        0.0508
      2 C         138.4879  141.8534  161.3633 C.ar    1  UNL1        0.0147
      3 C         138.8317  142.5742  160.0935 C.ar    1  UNL1        0.0019
      4 C         140.1111  143.3510  159.9949 C.ar    1  UNL1        0.0090
      5 C         141.0467  143.4070  161.1660 C.ar    1  UNL1        0.0307
      6 S         142.3692  144.0870  161.3625 S.2     1  UNL1       -0.0869
      7 C         142.8428  143.7865  162.7537 C.ar    1  UNL1        0.0295
      8 C         144.0787  144.1893  163.5022 C.ar    1  UNL1        0.0065
      9 C         144.2847  143.7263  164.9140 C.ar    1  UNL1        0.0005
     10 C         143.2549  142.8606  165.5773 C.ar    1  UNL1        0.0000
     11 C         142.0190  142.4578  164.8288 C.ar    1  UNL1        0.0006
     12 C         141.8130  142.9207  163.4170 C.ar    1  UNL1        0.0077
     13 C         140.7030  142.6862  162.4358 C.ar    1  UNL1        0.0200
     14 C         140.4548  144.0718  158.7251 C.ar    1  UNL1        0.0352
     15 C         140.0980  145.5199  158.5646 C.ar    1  UNL1        0.0031
     16 C         140.4417  146.2408  157.2949 C.ar    1  UNL1        0.0003
     17 C         141.1422  145.5135  156.1857 C.ar    1  UNL1        0.0062
     18 C         141.4990  144.0654  156.3462 C.ar    1  UNL1        0.0736
     19 C         142.1996  143.3382  155.2370 C.ar    1  UNL1        0.2030
     20 O         142.5433  144.0590  153.9672 O.2     1  UNL1       -0.2863
     21 C         142.5564  141.8901  155.3975 C.ar    1  UNL1        0.0955
     22 C         142.2126  141.1692  156.6673 C.ar    1  UNL1        0.2024
     23 O         141.5121  141.8965  157.7765 O.2     1  UNL1       -0.4398
     24 C         141.1553  143.3446  157.6160 C.ar    1  UNL1        0.1498
     25 N         142.5694  139.7212  156.8278 N.pl3   1  UNL1       -0.2742
     26 C         143.1688  138.9647  155.6797 C.3     1  UNL1        0.1257
     27 C         143.5256  137.5166  155.8402 C.3     1  UNL1        0.1637
     28 O         143.2830  136.8251  157.1489 O.3     1  UNL1       -0.3501
     29 C         142.6836  137.5815  158.2971 C.3     1  UNL1        0.1637
     30 C         142.3268  139.0296  158.1366 C.3     1  UNL1        0.1257
     31 O         140.5803  139.1954  163.0791 O.2     1  UNL1       -0.2733
     32 C         139.6582  139.8316  164.0764 C.2     1  UNL1        0.2425
     33 N         139.0798  141.1885  163.8042 N.am    1  UNL1       -0.2828
     34 H         138.4745  141.6061  164.4589 H       1  UNL1        0.1549
     35 C         139.3144  139.1108  165.3462 C.3     1  UNL1        0.1588
     36 N         140.0011  139.4799  166.6276 N.3     1  UNL1       -0.2626
     37 C         141.4995  139.4903  166.6995 C.3     1  UNL1        0.0900
     38 C         142.1863  139.8594  167.9809 C.3     1  UNL1        0.0897
     39 N         141.3748  140.2180  169.1905 N.3     1  UNL1       -0.2682
     40 C         139.8765  140.2075  169.1186 C.3     1  UNL1        0.0897
     41 C         139.1897  139.8385  167.8372 C.3     1  UNL1        0.0900
     42 C         142.0616  140.5871  170.4719 C.3     1  UNL1        0.1043
     43 C         141.7920  141.9169  171.1113 C.3     1  UNL1        0.1544
     44 O         140.5975  142.0927  172.0013 O.3     1  UNL1       -0.3805
     45 H         139.7869  141.9973  171.4772 H       1  UNL1        0.2105
@<TRIPOS>BOND
     1    31    32    2
     2    32    35    1
     3    35    36    1
     4    36    37    1
     5    37    38    1
     6    38    39    1
     7    39    42    1
     8    42    43    1
     9    43    44    1
    10    39    40    1
    11    40    41    1
    12    32    33   am
    13    33     1    1
    14     1     2   ar
    15     2     3   ar
    16     3     4   ar
    17     4    14    1
    18    14    15   ar
    19    15    16   ar
    20    16    17   ar
    21    17    18   ar
    22    18    19   ar
    23    19    20    2
    24    19    21   ar
    25    21    22   ar
    26    22    25    1
    27    25    26    1
    28    26    27    1
    29    27    28    1
    30    28    29    1
    31    29    30    1
    32    22    23   ar
    33    23    24   ar
    34     4     5   ar
    35     5     6   ar
    36     6     7   ar
    37     7     8   ar
    38     8     9   ar
    39     9    10   ar
    40    10    11   ar
    41    11    12   ar
    42    12    13   ar
    43    41    36    1
    44    13     1   ar
    45    24    14   ar
    46    13     5   ar
    47    24    18   ar
    48    12     7   ar
    49    30    25    1
    50    44    45    1
    51    33    34    1
@<TRIPOS>MOLECULE
*****
 45 51 0 0 0
SMALL
GASTEIGER

@<TRIPOS>ATOM
      1 C         141.0761  145.0113  159.0559 C.ar    1  UNL1        0.0508
      2 C         140.4795  145.5547  160.3203 C.ar    1  UNL1        0.0147
      3 C         141.0425  145.1490  161.6501 C.ar    1  UNL1        0.0019
      4 C         142.2021  144.1998  161.7155 C.ar    1  UNL1        0.0090
      5 C         142.7988  143.6564  160.4510 C.ar    1  UNL1        0.0307
      6 S         143.9371  142.7114  160.2035 S.2     1  UNL1       -0.0869
      7 C         144.0776  142.5332  158.7208 C.ar    1  UNL1        0.0295
      8 C         145.0272  141.7186  157.8934 C.ar    1  UNL1        0.0065
      9 C         144.9253  141.7388  156.3970 C.ar    1  UNL1        0.0005
     10 C         143.8738  142.5736  155.7281 C.ar    1  UNL1        0.0000
     11 C         142.9242  143.3882  156.5555 C.ar    1  UNL1        0.0006
     12 C         143.0261  143.3680  158.0519 C.ar    1  UNL1        0.0077
     13 C         142.2358  144.0621  159.1212 C.ar    1  UNL1        0.0200
     14 C         142.7651  143.7940  163.0453 C.ar    1  UNL1        0.0352
     15 C         143.8249  144.6312  163.6981 C.ar    1  UNL1        0.0031
     16 C         144.3879  144.2255  165.0278 C.ar    1  UNL1        0.0003
     17 C         143.8912  142.9826  165.7049 C.ar    1  UNL1        0.0062
     18 C         142.8315  142.1454  165.0521 C.ar    1  UNL1        0.0736
     19 C         142.3347  140.9025  165.7292 C.ar    1  UNL1        0.2030
     20 O         142.8977  140.4967  167.0590 O.2     1  UNL1       -0.2863
     21 C         141.2750  140.0653  165.0765 C.ar    1  UNL1        0.0955
     22 C         140.7119  140.4710  163.7466 C.ar    1  UNL1        0.2024
     23 O         141.2087  141.7140  163.0695 O.2     1  UNL1       -0.4398
     24 C         142.2684  142.5512  163.7223 C.ar    1  UNL1        0.1498
     25 N         139.6522  139.6339  163.0938 N.pl3   1  UNL1       -0.2742
     26 C         138.8508  140.1921  161.9555 C.3     1  UNL1        0.1257
     27 C         137.7911  139.3549  161.3027 C.3     1  UNL1        0.1637
     28 O         137.5328  137.9595  161.7884 O.3     1  UNL1       -0.3501
     29 C         138.3342  137.4012  162.9268 C.3     1  UNL1        0.1637
     30 C         139.3939  138.2384  163.5795 C.3     1  UNL1        0.1257
     31 O         139.1041  143.2354  157.6567 O.2     1  UNL1       -0.2733
     32 C         139.5271  144.5291  157.0265 C.2     1  UNL1        0.2425
     33 N         140.5131  145.4171  157.7260 N.am    1  UNL1       -0.2828
     34 H         140.7907  146.2663  157.3123 H       1  UNL1        0.1549
     35 C         138.9641  144.9350  155.6968 C.3     1  UNL1        0.1588
     36 N         139.4106  146.2135  155.0520 N.3     1  UNL1       -0.2626
     37 C         138.8277  147.5219  155.4977 C.3     1  UNL1        0.0900
     38 C         139.2743  148.8004  154.8529 C.3     1  UNL1        0.0897
     39 N         140.3038  148.7708  153.7624 N.3     1  UNL1       -0.2682
     40 C         140.8867  147.4625  153.3166 C.3     1  UNL1        0.0897
     41 C         140.4401  146.1839  153.9614 C.3     1  UNL1        0.0900
     42 C         140.7503  150.0494  153.1176 C.3     1  UNL1        0.1043
     43 C         140.7814  151.3200  153.9141 C.3     1  UNL1        0.1544
     44 O         141.7496  151.4697  155.0499 O.3     1  UNL1       -0.3805
     45 H         141.5217  150.8424  155.7538 H       1  UNL1        0.2105
@<TRIPOS>BOND
     1    31    32    2
     2    32    35    1
     3    35    36    1
     4    36    37    1
     5    37    38    1
     6    38    39    1
     7    39    42    1
     8    42    43    1
     9    43    44    1
    10    39    40    1
    11    40    41    1
    12    32    33   am
    13    33     1    1
    14     1     2   ar
    15     2     3   ar
    16     3     4   ar
    17     4    14    1
    18    14    15   ar
    19    15    16   ar
    20    16    17   ar
    21    17    18   ar
    22    18    19   ar
    23    19    20    2
    24    19    21   ar
    25    21    22   ar
    26    22    25    1
    27    25    26    1
    28    26    27    1
    29    27    28    1
    30    28    29    1
    31    29    30    1
    32    22    23   ar
    33    23    24   ar
    34     4     5   ar
    35     5     6   ar
    36     6     7   ar
    37     7     8   ar
    38     8     9   ar
    39     9    10   ar
    40    10    11   ar
    41    11    12   ar
    42    12    13   ar
    43    41    36    1
    44    13     1   ar
    45    24    14   ar
    46    13     5   ar
    47    24    18   ar
    48    12     7   ar
    49    30    25    1
    50    44    45    1
    51    33    34    1
@<TRIPOS>MOLECULE
*****
 45 51 0 0 0
SMALL
GASTEIGER

@<TRIPOS>ATOM
      1 C         140.7941  139.6130  157.7860 C.ar    1  UNL1        0.0508
      2 C         141.7837  139.9160  158.8717 C.ar    1  UNL1        0.0147
      3 C         141.5749  141.1008  159.7676 C.ar    1  UNL1        0.0019
      4 C         140.3764  141.9827  159.5778 C.ar    1  UNL1        0.0090
      5 C         139.3868  141.6797  158.4920 C.ar    1  UNL1        0.0307
      6 S         138.1208  142.3636  158.0684 S.2     1  UNL1       -0.0869
      7 C         137.5472  141.6015  156.9107 C.ar    1  UNL1        0.0295
      8 C         136.3127  141.8101  156.0847 C.ar    1  UNL1        0.0065
      9 C         135.9896  140.8636  154.9667 C.ar    1  UNL1        0.0005
     10 C         136.9011  139.7087  154.6748 C.ar    1  UNL1        0.0000
     11 C         138.1357  139.5001  155.5009 C.ar    1  UNL1        0.0006
     12 C         138.4587  140.4466  156.6188 C.ar    1  UNL1        0.0077
     13 C         139.5956  140.4949  157.5961 C.ar    1  UNL1        0.0200
     14 C         140.1676  143.1675  160.4736 C.ar    1  UNL1        0.0352
     15 C         140.3803  144.5548  159.9442 C.ar    1  UNL1        0.0031
     16 C         140.1715  145.7396  160.8400 C.ar    1  UNL1        0.0003
     17 C         139.7501  145.5372  162.2653 C.ar    1  UNL1        0.0062
     18 C         139.5374  144.1499  162.7947 C.ar    1  UNL1        0.0736
     19 C         139.1159  143.9475  164.2200 C.ar    1  UNL1        0.2030
     20 O         138.9071  145.1323  165.1159 O.2     1  UNL1       -0.2863
     21 C         138.9033  142.5602  164.7494 C.ar    1  UNL1        0.0955
     22 C         139.1121  141.3753  163.8535 C.ar    1  UNL1        0.2024
     23 O         139.5335  141.5778  162.4282 O.2     1  UNL1       -0.4398
     24 C         139.7462  142.9650  161.8988 C.ar    1  UNL1        0.1498
     25 N         138.8994  139.9881  164.3829 N.pl3   1  UNL1       -0.2742
     26 C         139.2632  138.8005  163.5421 C.3     1  UNL1        0.1257
     27 C         139.0506  137.4132  164.0715 C.3     1  UNL1        0.1637
     28 O         138.4741  137.2136  165.4417 O.3     1  UNL1       -0.3501
     29 C         138.1102  138.4012  166.2826 C.3     1  UNL1        0.1637
     30 C         138.3229  139.7884  165.7532 C.3     1  UNL1        0.1257
     31 O         142.5657  139.8482  155.3763 O.2     1  UNL1       -0.2733
     32 C         141.8888  138.5458  155.6853 C.2     1  UNL1        0.2425
     33 N         141.0029  138.4282  156.8901 N.am    1  UNL1       -0.2828
     34 H         140.5586  137.5733  157.0928 H       1  UNL1        0.1549
     35 C         142.0976  137.3610  154.7895 C.3     1  UNL1        0.1588
     36 N         142.3457  136.0062  155.3835 N.3     1  UNL1       -0.2626
     37 C         143.3824  135.8350  156.4540 C.3     1  UNL1        0.0900
     38 C         143.6305  134.4801  157.0480 C.3     1  UNL1        0.0897
     39 N         142.8419  133.2964  156.5716 N.3     1  UNL1       -0.2682
     40 C         141.8052  133.4676  155.5010 C.3     1  UNL1        0.0897
     41 C         141.5571  134.8225  154.9070 C.3     1  UNL1        0.0900
     42 C         143.0900  131.9416  157.1656 C.3     1  UNL1        0.1043
     43 C         144.4173  131.2700  156.9731 C.3     1  UNL1        0.1544
     44 O         145.5639  132.0317  156.3772 O.3     1  UNL1       -0.3805
     45 H         145.3597  132.2548  155.4556 H       1  UNL1        0.2105
@<TRIPOS>BOND
     1    31    32    2
     2    32    35    1
     3    35    36    1
     4    36    37    1
     5    37    38    1
     6    38    39    1
     7    39    42    1
     8    42    43    1
     9    43    44    1
    10    39    40    1
    11    40    41    1
    12    32    33   am
    13    33     1    1
    14     1     2   ar
    15     2     3   ar
    16     3     4   ar
    17     4    14    1
    18    14    15   ar
    19    15    16   ar
    20    16    17   ar
    21    17    18   ar
    22    18    19   ar
    23    19    20    2
    24    19    21   ar
    25    21    22   ar
    26    22    25    1
    27    25    26    1
    28    26    27    1
    29    27    28    1
    30    28    29    1
    31    29    30    1
    32    22    23   ar
    33    23    24   ar
    34     4     5   ar
    35     5     6   ar
    36     6     7   ar
    37     7     8   ar
    38     8     9   ar
    39     9    10   ar
    40    10    11   ar
    41    11    12   ar
    42    12    13   ar
    43    41    36    1
    44    13     1   ar
    45    24    14   ar
    46    13     5   ar
    47    24    18   ar
    48    12     7   ar
    49    30    25    1
    50    44    45    1
    51    33    34    1
@<TRIPOS>MOLECULE
*****
 45 51 0 0 0
SMALL
GASTEIGER

@<TRIPOS>ATOM
      1 C         142.3949  141.3472  161.8340 C.ar    1  UNL1        0.0508
      2 C         143.0807  141.0357  160.5368 C.ar    1  UNL1        0.0147
      3 C         142.8037  141.8714  159.3224 C.ar    1  UNL1        0.0019
      4 C         141.8408  143.0186  159.4051 C.ar    1  UNL1        0.0090
      5 C         141.1550  143.3301  160.7023 C.ar    1  UNL1        0.0307
      6 S         140.1642  144.3893  161.0848 S.2     1  UNL1       -0.0869
      7 C         139.8288  144.2082  162.5355 C.ar    1  UNL1        0.0295
      8 C         138.9111  144.9584  163.4548 C.ar    1  UNL1        0.0065
      9 C         138.7771  144.5375  164.8882 C.ar    1  UNL1        0.0005
     10 C         139.5607  143.3664  165.4024 C.ar    1  UNL1        0.0000
     11 C         140.4784  142.6162  164.4832 C.ar    1  UNL1        0.0006
     12 C         140.6124  143.0371  163.0498 C.ar    1  UNL1        0.0077
     13 C         141.4320  142.4944  161.9168 C.ar    1  UNL1        0.0200
     14 C         141.5638  143.8543  158.1907 C.ar    1  UNL1        0.0352
     15 C         141.9498  145.3037  158.1736 C.ar    1  UNL1        0.0031
     16 C         141.6728  146.1394  156.9593 C.ar    1  UNL1        0.0003
     17 C         141.0098  145.5258  155.7619 C.ar    1  UNL1        0.0062
     18 C         140.6238  144.0764  155.7789 C.ar    1  UNL1        0.0736
     19 C         139.9607  143.4627  154.5814 C.ar    1  UNL1        0.2030
     20 O         139.6837  144.2984  153.3670 O.2     1  UNL1       -0.2863
     21 C         139.5747  142.0134  154.5985 C.ar    1  UNL1        0.0955
     22 C         139.8517  141.1776  155.8129 C.ar    1  UNL1        0.2024
     23 O         140.5148  141.7913  157.0104 O.2     1  UNL1       -0.4398
     24 C         140.9008  143.2406  156.9933 C.ar    1  UNL1        0.1498
     25 N         139.4657  139.7282  155.8299 N.pl3   1  UNL1       -0.2742
     26 C         138.4818  139.2023  154.8274 C.3     1  UNL1        0.1257
     27 C         138.0958  137.7530  154.8444 C.3     1  UNL1        0.1637
     28 O         138.6937  136.8295  155.8640 O.3     1  UNL1       -0.3501
     29 C         139.6777  137.3553  156.8666 C.3     1  UNL1        0.1637
     30 C         140.0637  138.8047  156.8496 C.3     1  UNL1        0.1257
     31 O         140.5526  139.0919  162.5552 O.2     1  UNL1       -0.2733
     32 C         141.7508  139.3838  163.4090 C.2     1  UNL1        0.2425
     33 N         142.6720  140.5114  163.0485 N.am    1  UNL1       -0.2828
     34 H         143.4584  140.7030  163.6089 H       1  UNL1        0.1549
     35 C         142.0279  138.5481  164.6234 C.3     1  UNL1        0.1588
     36 N         141.7205  139.0855  165.9897 N.3     1  UNL1       -0.2626
     37 C         142.8001  139.1544  167.0289 C.3     1  UNL1        0.0900
     38 C         142.4927  139.6918  168.3952 C.3     1  UNL1        0.0897
     39 N         141.1058  140.1604  168.7223 N.3     1  UNL1       -0.2682
     40 C         140.0262  140.0915  167.6830 C.3     1  UNL1        0.0897
     41 C         140.3336  139.5541  166.3168 C.3     1  UNL1        0.0900
     42 C         140.7984  140.6978  170.0885 C.3     1  UNL1        0.1043
     43 C         141.8952  140.8435  171.1013 C.3     1  UNL1        0.1544
     44 O         142.0498  142.1284  171.8597 O.3     1  UNL1       -0.3805
     45 H         142.2995  142.8376  171.2468 H       1  UNL1        0.2105
@<TRIPOS>BOND
     1    31    32    2
     2    32    35    1
     3    35    36    1
     4    36    37    1
     5    37    38    1
     6    38    39    1
     7    39    42    1
     8    42    43    1
     9    43    44    1
    10    39    40    1
    11    40    41    1
    12    32    33   am
    13    33     1    1
    14     1     2   ar
    15     2     3   ar
    16     3     4   ar
    17     4    14    1
    18    14    15   ar
    19    15    16   ar
    20    16    17   ar
    21    17    18   ar
    22    18    19   ar
    23    19    20    2
    24    19    21   ar
    25    21    22   ar
    26    22    25    1
    27    25    26    1
    28    26    27    1
    29    27    28    1
    30    28    29    1
    31    29    30    1
    32    22    23   ar
    33    23    24   ar
    34     4     5   ar
    35     5     6   ar
    36     6     7   ar
    37     7     8   ar
    38     8     9   ar
    39     9    10   ar
    40    10    11   ar
    41    11    12   ar
    42    12    13   ar
    43    41    36    1
    44    13     1   ar
    45    24    14   ar
    46    13     5   ar
    47    24    18   ar
    48    12     7   ar
    49    30    25    1
    50    44    45    1
    51    33    34    1
@<TRIPOS>MOLECULE
*****
 45 51 0 0 0
SMALL
GASTEIGER

@<TRIPOS>ATOM
      1 C         140.3448  139.6615  162.4717 C.ar    1  UNL1        0.0508
      2 C         139.5028  138.9707  161.4403 C.ar    1  UNL1        0.0147
      3 C         140.0697  138.6781  160.0827 C.ar    1  UNL1        0.0019
      4 C         141.4785  139.0765  159.7565 C.ar    1  UNL1        0.0090
      5 C         142.3205  139.7674  160.7879 C.ar    1  UNL1        0.0307
      6 S         143.7316  140.2751  160.7557 S.2     1  UNL1       -0.0869
      7 C         144.0369  140.8814  162.0933 C.ar    1  UNL1        0.0295
      8 C         145.2700  141.5373  162.6401 C.ar    1  UNL1        0.0065
      9 C         145.2807  142.0603  164.0459 C.ar    1  UNL1        0.0005
     10 C         144.0582  141.9273  164.9049 C.ar    1  UNL1        0.0000
     11 C         142.8251  141.2713  164.3581 C.ar    1  UNL1        0.0006
     12 C         142.8144  140.7484  162.9523 C.ar    1  UNL1        0.0077
     13 C         141.7537  140.0599  162.1455 C.ar    1  UNL1        0.0200
     14 C         142.0454  138.7840  158.3989 C.ar    1  UNL1        0.0352
     15 C         142.5703  137.4144  158.0845 C.ar    1  UNL1        0.0031
     16 C         143.1372  137.1218  156.7270 C.ar    1  UNL1        0.0003
     17 C         143.1791  138.1988  155.6837 C.ar    1  UNL1        0.0062
     18 C         142.6542  139.5683  155.9981 C.ar    1  UNL1        0.0736
     19 C         142.6962  140.6453  154.9548 C.ar    1  UNL1        0.2030
     20 O         143.2630  140.3528  153.5972 O.2     1  UNL1       -0.2863
     21 C         142.1713  142.0148  155.2692 C.ar    1  UNL1        0.0955
     22 C         141.6044  142.3074  156.6269 C.ar    1  UNL1        0.2024
     23 O         141.5624  141.2304  157.6701 O.2     1  UNL1       -0.4398
     24 C         142.0873  139.8609  157.3557 C.ar    1  UNL1        0.1498
     25 N         141.0795  143.6770  156.9412 N.pl3   1  UNL1       -0.2742
     26 C         140.8899  144.0982  158.3682 C.3     1  UNL1        0.1257
     27 C         140.3650  145.4677  158.6826 C.3     1  UNL1        0.1637
     28 O         140.0296  146.4160  157.5699 O.3     1  UNL1       -0.3501
     29 C         140.2192  145.9948  156.1428 C.3     1  UNL1        0.1637
     30 C         140.7441  144.6253  155.8284 C.3     1  UNL1        0.1257
     31 O         140.2191  137.4953  164.5434 O.2     1  UNL1       -0.2733
     32 C         139.7150  138.8709  164.8651 C.2     1  UNL1        0.2425
     33 N         139.7779  139.9541  163.8294 N.am    1  UNL1       -0.2828
     34 H         139.4470  140.8569  164.0406 H       1  UNL1        0.1549
     35 C         139.1481  139.1634  166.2227 C.3     1  UNL1        0.1588
     36 N         140.0237  139.7485  167.2909 N.3     1  UNL1       -0.2626
     37 C         139.4172  140.2409  168.5715 C.3     1  UNL1        0.0900
     38 C         140.2928  140.8259  169.6397 C.3     1  UNL1        0.0897
     39 N         141.7748  140.9186  169.4274 N.3     1  UNL1       -0.2682
     40 C         142.3813  140.4262  168.1468 C.3     1  UNL1        0.0897
     41 C         141.5057  139.8411  167.0786 C.3     1  UNL1        0.0900
     42 C         142.6504  141.5037  170.4956 C.3     1  UNL1        0.1043
     43 C         143.4343  142.7529  170.2219 C.3     1  UNL1        0.1544
     44 O         143.3522  143.9126  171.1697 O.3     1  UNL1       -0.3805
     45 H         142.4540  144.2784  171.1560 H       1  UNL1        0.2105
@<TRIPOS>BOND
     1    31    32    2
     2    32    35    1
     3    35    36    1
     4    36    37    1
     5    37    38    1
     6    38    39    1
     7    39    42    1
     8    42    43    1
     9    43    44    1
    10    39    40    1
    11    40    41    1
    12    32    33   am
    13    33     1    1
    14     1     2   ar
    15     2     3   ar
    16     3     4   ar
    17     4    14    1
    18    14    15   ar
    19    15    16   ar
    20    16    17   ar
    21    17    18   ar
    22    18    19   ar
    23    19    20    2
    24    19    21   ar
    25    21    22   ar
    26    22    25    1
    27    25    26    1
    28    26    27    1
    29    27    28    1
    30    28    29    1
    31    29    30    1
    32    22    23   ar
    33    23    24   ar
    34     4     5   ar
    35     5     6   ar
    36     6     7   ar
    37     7     8   ar
    38     8     9   ar
    39     9    10   ar
    40    10    11   ar
    41    11    12   ar
    42    12    13   ar
    43    41    36    1
    44    13     1   ar
    45    24    14   ar
    46    13     5   ar
    47    24    18   ar
    48    12     7   ar
    49    30    25    1
    50    44    45    1
    51    33    34    1
@<TRIPOS>MOLECULE
*****
 45 51 0 0 0
SMALL
GASTEIGER

@<TRIPOS>ATOM
      1 C         138.5362  141.0130  158.9296 C.ar    1  UNL1        0.0508
      2 C         138.1583  142.1838  159.7878 C.ar    1  UNL1        0.0147
      3 C         139.1421  142.7389  160.7747 C.ar    1  UNL1        0.0019
      4 C         140.5038  142.1232  160.9034 C.ar    1  UNL1        0.0090
      5 C         140.8817  140.9524  160.0452 C.ar    1  UNL1        0.0307
      6 S         142.1409  140.1429  159.9496 S.2     1  UNL1       -0.0869
      7 C         141.9354  139.0876  158.9037 C.ar    1  UNL1        0.0295
      8 C         142.8314  138.0038  158.3817 C.ar    1  UNL1        0.0065
      9 C         142.3411  137.0772  157.3089 C.ar    1  UNL1        0.0005
     10 C         140.9548  137.2344  156.7580 C.ar    1  UNL1        0.0000
     11 C         140.0588  138.3182  157.2800 C.ar    1  UNL1        0.0006
     12 C         140.5491  139.2448  158.3528 C.ar    1  UNL1        0.0077
     13 C         139.8979  140.3973  159.0583 C.ar    1  UNL1        0.0200
     14 C         141.4876  142.6783  161.8903 C.ar    1  UNL1        0.0352
     15 C         142.4383  143.7612  161.4735 C.ar    1  UNL1        0.0031
     16 C         143.4221  144.3163  162.4603 C.ar    1  UNL1        0.0003
     17 C         143.4553  143.7885  163.8640 C.ar    1  UNL1        0.0062
     18 C         142.5047  142.7057  164.2808 C.ar    1  UNL1        0.0736
     19 C         142.5379  142.1780  165.6846 C.ar    1  UNL1        0.2030
     20 O         143.5217  142.7331  166.6715 O.2     1  UNL1       -0.2863
     21 C         141.5873  141.0951  166.1014 C.ar    1  UNL1        0.0955
     22 C         140.6034  140.5400  165.1145 C.ar    1  UNL1        0.2024
     23 O         140.5702  141.0677  163.7108 O.2     1  UNL1       -0.4398
     24 C         141.5208  142.1505  163.2939 C.ar    1  UNL1        0.1498
     25 N         139.6528  139.4571  165.5313 N.pl3   1  UNL1       -0.2742
     26 C         138.7261  139.6777  166.6900 C.3     1  UNL1        0.1257
     27 C         137.7755  138.5949  167.1068 C.3     1  UNL1        0.1637
     28 O         137.7516  137.2915  166.3650 O.3     1  UNL1       -0.3501
     29 C         138.6782  137.0708  165.2063 C.3     1  UNL1        0.1637
     30 C         139.6289  138.1536  164.7895 C.3     1  UNL1        0.1257
     31 O         137.3737  142.7890  156.8096 O.2     1  UNL1       -0.2733
     32 C         136.9711  141.3460  156.8827 C.2     1  UNL1        0.2425
     33 N         137.5523  140.4579  157.9427 N.am    1  UNL1       -0.2828
     34 H         137.2880  139.5107  157.9907 H       1  UNL1        0.1549
     35 C         135.9872  140.7909  155.8959 C.3     1  UNL1        0.1588
     36 N         134.5856  140.4784  156.3291 N.3     1  UNL1       -0.2626
     37 C         134.3470  139.5738  157.5017 C.3     1  UNL1        0.0900
     38 C         132.9454  139.2613  157.9349 C.3     1  UNL1        0.0897
     39 N         131.7822  139.8534  157.1956 N.3     1  UNL1       -0.2682
     40 C         132.0208  140.7580  156.0230 C.3     1  UNL1        0.0897
     41 C         133.4225  141.0705  155.5898 C.3     1  UNL1        0.0900
     42 C         130.3806  139.5409  157.6289 C.3     1  UNL1        0.1043
     43 C         129.7528  138.2322  157.2505 C.3     1  UNL1        0.1544
     44 O         129.9323  137.6872  155.8646 O.3     1  UNL1       -0.3805
     45 H         129.4891  138.2698  155.2282 H       1  UNL1        0.2105
@<TRIPOS>BOND
     1    31    32    2
     2    32    35    1
     3    35    36    1
     4    36    37    1
     5    37    38    1
     6    38    39    1
     7    39    42    1
     8    42    43    1
     9    43    44    1
    10    39    40    1
    11    40    41    1
    12    32    33   am
    13    33     1    1
    14     1     2   ar
    15     2     3   ar
    16     3     4   ar
    17     4    14    1
    18    14    15   ar
    19    15    16   ar
    20    16    17   ar
    21    17    18   ar
    22    18    19   ar
    23    19    20    2
    24    19    21   ar
    25    21    22   ar
    26    22    25    1
    27    25    26    1
    28    26    27    1
    29    27    28    1
    30    28    29    1
    31    29    30    1
    32    22    23   ar
    33    23    24   ar
    34     4     5   ar
    35     5     6   ar
    36     6     7   ar
    37     7     8   ar
    38     8     9   ar
    39     9    10   ar
    40    10    11   ar
    41    11    12   ar
    42    12    13   ar
    43    41    36    1
    44    13     1   ar
    45    24    14   ar
    46    13     5   ar
    47    24    18   ar
    48    12     7   ar
    49    30    25    1
    50    44    45    1
    51    33    34    1
@<TRIPOS>MOLECULE
*****
 45 51 0 0 0
SMALL
GASTEIGER

@<TRIPOS>ATOM
      1 C         139.6630  139.2737  161.6572 C.ar    1  UNL1        0.0508
      2 C         139.7701  138.4629  160.3998 C.ar    1  UNL1        0.0147
      3 C         139.3486  139.0547  159.0875 C.ar    1  UNL1        0.0019
      4 C         138.8199  140.4574  159.0327 C.ar    1  UNL1        0.0090
      5 C         138.7127  141.2682  160.2902 C.ar    1  UNL1        0.0307
      6 S         138.2333  142.6665  160.5450 S.2     1  UNL1       -0.0869
      7 C         138.3586  142.9389  162.0148 C.ar    1  UNL1        0.0295
      8 C         138.0376  144.1479  162.8424 C.ar    1  UNL1        0.0065
      9 C         138.2734  144.1270  164.3236 C.ar    1  UNL1        0.0005
     10 C         138.8302  142.8970  164.9771 C.ar    1  UNL1        0.0000
     11 C         139.1512  141.6880  164.1494 C.ar    1  UNL1        0.0006
     12 C         138.9154  141.7089  162.6683 C.ar    1  UNL1        0.0077
     13 C         139.1343  140.6764  161.6024 C.ar    1  UNL1        0.0200
     14 C         138.3983  141.0492  157.7205 C.ar    1  UNL1        0.0352
     15 C         136.9574  141.0041  157.3057 C.ar    1  UNL1        0.0031
     16 C         136.5358  141.5959  155.9935 C.ar    1  UNL1        0.0003
     17 C         137.5551  142.2328  155.0960 C.ar    1  UNL1        0.0062
     18 C         138.9959  142.2779  155.5107 C.ar    1  UNL1        0.0736
     19 C         140.0151  142.9149  154.6132 C.ar    1  UNL1        0.2030
     20 O         139.5936  143.5067  153.3010 O.2     1  UNL1       -0.2863
     21 C         141.4559  142.9600  155.0280 C.ar    1  UNL1        0.0955
     22 C         141.8775  142.3681  156.3403 C.ar    1  UNL1        0.2024
     23 O         140.8583  141.7312  157.2378 O.2     1  UNL1       -0.4398
     24 C         139.4175  141.6861  156.8230 C.ar    1  UNL1        0.1498
     25 N         143.3183  142.4132  156.7550 N.pl3   1  UNL1       -0.2742
     26 C         143.6782  142.6514  158.1916 C.3     1  UNL1        0.1257
     27 C         145.1190  142.6965  158.6063 C.3     1  UNL1        0.1637
     28 O         146.1999  142.5034  157.5845 O.3     1  UNL1       -0.3501
     29 C         145.8402  142.2653  156.1479 C.3     1  UNL1        0.1637
     30 C         144.3994  142.2202  155.7332 C.3     1  UNL1        0.1257
     31 O         142.4505  139.7142  162.6752 O.2     1  UNL1       -0.2733
     32 C         141.4783  138.9021  163.4784 C.2     1  UNL1        0.2425
     33 N         140.0846  138.6818  162.9695 N.am    1  UNL1       -0.2828
     34 H         139.4465  138.1488  163.4968 H       1  UNL1        0.1549
     35 C         141.8998  138.3102  164.7906 C.3     1  UNL1        0.1588
     36 N         141.6430  139.0557  166.0667 N.3     1  UNL1       -0.2626
     37 C         140.2366  139.3784  166.4768 C.3     1  UNL1        0.0900
     38 C         139.9798  140.1238  167.7528 C.3     1  UNL1        0.0897
     39 N         141.1293  140.5467  168.6188 N.3     1  UNL1       -0.2682
     40 C         142.5357  140.2241  168.2087 C.3     1  UNL1        0.0897
     41 C         142.7925  139.4786  166.9326 C.3     1  UNL1        0.0900
     42 C         140.8724  141.2922  169.8948 C.3     1  UNL1        0.1043
     43 C         141.7667  141.0802  171.0802 C.3     1  UNL1        0.1544
     44 O         142.0939  142.2289  171.9877 O.3     1  UNL1       -0.3805
     45 H         142.6195  142.8844  171.5030 H       1  UNL1        0.2105
@<TRIPOS>BOND
     1    31    32    2
     2    32    35    1
     3    35    36    1
     4    36    37    1
     5    37    38    1
     6    38    39    1
     7    39    42    1
     8    42    43    1
     9    43    44    1
    10    39    40    1
    11    40    41    1
    12    32    33   am
    13    33     1    1
    14     1     2   ar
    15     2     3   ar
    16     3     4   ar
    17     4    14    1
    18    14    15   ar
    19    15    16   ar
    20    16    17   ar
    21    17    18   ar
    22    18    19   ar
    23    19    20    2
    24    19    21   ar
    25    21    22   ar
    26    22    25    1
    27    25    26    1
    28    26    27    1
    29    27    28    1
    30    28    29    1
    31    29    30    1
    32    22    23   ar
    33    23    24   ar
    34     4     5   ar
    35     5     6   ar
    36     6     7   ar
    37     7     8   ar
    38     8     9   ar
    39     9    10   ar
    40    10    11   ar
    41    11    12   ar
    42    12    13   ar
    43    41    36    1
    44    13     1   ar
    45    24    14   ar
    46    13     5   ar
    47    24    18   ar
    48    12     7   ar
    49    30    25    1
    50    44    45    1
    51    33    34    1
