@<TRIPOS>MOLECULE
*****
 31 35 0 0 0
SMALL
GASTEIGER

@<TRIPOS>ATOM
      1 C         141.7833  141.4021  164.9202 C.3     1  UNL1        0.0048
      2 C         140.6626  140.4076  164.9927 C.3     1  UNL1        0.0249
      3 C         139.9834  140.1372  166.3025 C.2     1  UNL1       -0.0078
      4 C         138.8628  139.1427  166.3750 C.2     1  UNL1        0.0546
      5 N         138.3860  139.0846  167.7960 N.2     1  UNL1       -0.2540
      6 C         139.2118  140.0431  168.6017 C.2     1  UNL1        0.0626
      7 C         139.1924  140.4076  170.0566 C.3     1  UNL1        0.0716
      8 C         140.1602  141.4227  170.5884 C.2     1  UNL1       -0.0159
      9 C         141.1475  142.0732  169.6654 C.2     1  UNL1        0.0676
     10 C         141.1670  141.7087  168.2105 C.2     1  UNL1        0.0044
     11 C         140.1991  140.6937  167.6787 C.2     1  UNL1        0.0110
     12 C         138.4214  138.4186  165.1377 C.3     1  UNL1        0.0456
     13 C         139.1006  138.6889  163.8279 C.3     1  UNL1        0.0089
     14 C         138.6592  137.9648  162.5907 C.3     1  UNL1        0.0178
     15 C         139.3384  138.2352  161.2809 C.3     1  UNL1        0.0721
     16 N         140.4590  139.2296  161.2084 N.3     1  UNL1       -0.2727
     17 C         140.9005  139.9538  162.4456 C.3     1  UNL1        0.0724
     18 C         140.2212  139.6834  163.7554 C.3     1  UNL1        0.0205
     19 C         142.1154  143.0883  170.1973 C.3     1  UNL1        0.4183
     20 F         143.0833  144.1033  170.7292 F       1  UNL1       -0.1659
     21 F         141.0865  144.1646  170.0158 F       1  UNL1       -0.1659
     22 F         143.1444  142.0121  170.3787 F       1  UNL1       -0.1659
     23 C         141.1383  139.5000  159.8985 C.3     1  UNL1        0.0721
     24 C         142.4089  140.2965  159.8629 C.3     1  UNL1        0.0173
     25 C         143.6925  139.6823  160.3373 C.3     1  UNL1        0.0016
     26 C         144.2658  140.0753  161.6664 C.3     1  UNL1        0.0050
     27 C         144.8023  141.4610  161.8716 C.3     1  UNL1        0.0322
     28 C         145.3756  141.8541  163.2009 C.3     1  UNL1        0.1422
     29 O         145.4125  140.8615  164.3249 O.3     1  UNL1       -0.3538
     30 C         144.8760  139.4758  164.1197 C.3     1  UNL1        0.1422
     31 C         144.3027  139.0827  162.7905 C.3     1  UNL1        0.0322
@<TRIPOS>BOND
     1     2     1    1
     2     2     3    1
     3     3     4    2
     4     4     5    1
     5     5     6    2
     6     6     7    1
     7     7     8    1
     8     8     9    2
     9     9    19    1
    10    19    20    1
    11    19    21    1
    12    19    22    1
    13     9    10    1
    14    10    11    2
    15     4    12    1
    16    13    12    1
    17    13    14    1
    18    14    15    1
    19    15    16    1
    20    16    23    1
    21    23    24    1
    22    24    25    1
    23    25    26    1
    24    26    27    1
    25    27    28    1
    26    28    29    1
    27    29    30    1
    28    30    31    1
    29    16    17    1
    30    18    17    1
    31    18     2    1
    32    11     3    1
    33    18    13    1
    34    11     6    1
    35    31    26    1
@<TRIPOS>MOLECULE
*****
 31 35 0 0 0
SMALL
GASTEIGER

@<TRIPOS>ATOM
      1 C         142.0539  141.1841  164.9569 C.3     1  UNL1        0.0048
      2 C         140.8706  140.2632  165.0011 C.3     1  UNL1        0.0249
      3 C         140.1255  140.0606  166.2870 C.2     1  UNL1       -0.0078
      4 C         138.9423  139.1396  166.3312 C.2     1  UNL1        0.0546
      5 N         138.4081  139.1383  167.7328 N.2     1  UNL1       -0.2540
      6 C         139.2611  140.0584  168.5549 C.2     1  UNL1        0.0626
      7 C         139.2084  140.4508  170.0017 C.3     1  UNL1        0.0716
      8 C         140.2172  141.4133  170.5549 C.2     1  UNL1       -0.0159
      9 C         141.2786  141.9833  169.6613 C.2     1  UNL1        0.0676
     10 C         141.3313  141.5909  168.2146 C.2     1  UNL1        0.0044
     11 C         140.3225  140.6284  167.6614 C.2     1  UNL1        0.0110
     12 C         138.5043  138.4212  165.0894 C.3     1  UNL1        0.0456
     13 C         139.2494  138.6238  163.8034 C.3     1  UNL1        0.0089
     14 C         138.8114  137.9054  162.5616 C.3     1  UNL1        0.0178
     15 C         139.5565  138.1080  161.2756 C.3     1  UNL1        0.0721
     16 N         140.7397  139.0289  161.2315 N.3     1  UNL1       -0.2727
     17 C         141.1778  139.7474  162.4732 C.3     1  UNL1        0.0724
     18 C         140.4326  139.5448  163.7593 C.3     1  UNL1        0.0205
     19 C         142.2874  142.9458  170.2146 C.3     1  UNL1        0.4183
     20 F         143.2961  143.9083  170.7679 F       1  UNL1       -0.1659
     21 F         143.2759  141.8269  170.3589 F       1  UNL1       -0.1659
     22 F         141.2989  144.0647  170.0704 F       1  UNL1       -0.1659
     23 C         141.4849  139.2315  159.9455 C.3     1  UNL1        0.0721
     24 C         141.2984  140.4969  159.1619 C.3     1  UNL1        0.0173
     25 C         139.9387  141.1220  159.0594 C.3     1  UNL1        0.0016
     26 C         139.5112  142.1557  160.0587 C.3     1  UNL1        0.0050
     27 C         138.3797  141.8661  160.9999 C.3     1  UNL1        0.0322
     28 C         137.9521  142.8998  161.9993 C.3     1  UNL1        0.1422
     29 O         138.6561  144.2231  162.0575 O.3     1  UNL1       -0.3538
     30 C         139.7876  144.5127  161.1163 C.3     1  UNL1        0.1422
     31 C         140.2152  143.4790  160.1170 C.3     1  UNL1        0.0322
@<TRIPOS>BOND
     1     2     1    1
     2     2     3    1
     3     3     4    2
     4     4     5    1
     5     5     6    2
     6     6     7    1
     7     7     8    1
     8     8     9    2
     9     9    19    1
    10    19    20    1
    11    19    21    1
    12    19    22    1
    13     9    10    1
    14    10    11    2
    15     4    12    1
    16    13    12    1
    17    13    14    1
    18    14    15    1
    19    15    16    1
    20    16    23    1
    21    23    24    1
    22    24    25    1
    23    25    26    1
    24    26    27    1
    25    27    28    1
    26    28    29    1
    27    29    30    1
    28    30    31    1
    29    16    17    1
    30    18    17    1
    31    18     2    1
    32    11     3    1
    33    18    13    1
    34    11     6    1
    35    31    26    1
@<TRIPOS>MOLECULE
*****
 31 35 0 0 0
SMALL
GASTEIGER

@<TRIPOS>ATOM
      1 C         139.3010  141.2917  165.3058 C.3     1  UNL1        0.0048
      2 C         140.3988  140.2748  165.2018 C.3     1  UNL1        0.0249
      3 C         141.2954  140.0161  166.3762 C.2     1  UNL1       -0.0078
      4 C         142.3932  138.9993  166.2721 C.2     1  UNL1        0.0546
      5 N         143.1141  138.9594  167.5869 N.2     1  UNL1       -0.2540
      6 C         142.4619  139.9516  168.5035 C.2     1  UNL1        0.0626
      7 C         142.7464  140.3447  169.9228 C.3     1  UNL1        0.0716
      8 C         141.9067  141.3909  170.5939 C.2     1  UNL1       -0.0159
      9 C         140.7826  142.0440  169.8457 C.2     1  UNL1        0.0676
     10 C         140.4982  141.6509  168.4263 C.2     1  UNL1        0.0044
     11 C         141.3378  140.6047  167.7553 C.2     1  UNL1        0.0110
     12 C         142.5944  138.2411  164.9936 C.3     1  UNL1        0.0456
     13 C         141.6979  138.4997  163.8191 C.3     1  UNL1        0.0089
     14 C         141.8992  137.7415  162.5406 C.3     1  UNL1        0.0178
     15 C         141.0027  138.0002  161.3661 C.3     1  UNL1        0.0721
     16 N         139.9049  139.0170  161.4702 N.3     1  UNL1       -0.2727
     17 C         139.7036  139.7753  162.7487 C.3     1  UNL1        0.0724
     18 C         140.6001  139.5166  163.9232 C.3     1  UNL1        0.0205
     19 C         139.9430  143.0903  170.5168 C.3     1  UNL1        0.4183
     20 F         139.1034  144.1365  171.1879 F       1  UNL1       -0.1659
     21 F         138.8440  142.0871  170.7058 F       1  UNL1       -0.1659
     22 F         141.0420  144.0935  170.3278 F       1  UNL1       -0.1659
     23 C         139.0083  139.2757  160.2957 C.3     1  UNL1        0.0721
     24 C         138.1482  140.5042  160.2650 C.3     1  UNL1        0.0173
     25 C         138.7540  141.8358  159.9342 C.3     1  UNL1        0.0016
     26 C         138.8248  142.9083  160.9804 C.3     1  UNL1        0.0050
     27 C         137.8262  142.9315  162.0994 C.3     1  UNL1        0.0322
     28 C         137.8969  144.0041  163.1458 C.3     1  UNL1        0.1422
     29 O         138.9663  145.0534  163.0730 O.3     1  UNL1       -0.3538
     30 C         139.9649  145.0303  161.9540 C.3     1  UNL1        0.1422
     31 C         139.8942  143.9578  160.9077 C.3     1  UNL1        0.0322
@<TRIPOS>BOND
     1     2     1    1
     2     2     3    1
     3     3     4    2
     4     4     5    1
     5     5     6    2
     6     6     7    1
     7     7     8    1
     8     8     9    2
     9     9    19    1
    10    19    20    1
    11    19    21    1
    12    19    22    1
    13     9    10    1
    14    10    11    2
    15     4    12    1
    16    13    12    1
    17    13    14    1
    18    14    15    1
    19    15    16    1
    20    16    23    1
    21    23    24    1
    22    24    25    1
    23    25    26    1
    24    26    27    1
    25    27    28    1
    26    28    29    1
    27    29    30    1
    28    30    31    1
    29    16    17    1
    30    18    17    1
    31    18     2    1
    32    11     3    1
    33    18    13    1
    34    11     6    1
    35    31    26    1
@<TRIPOS>MOLECULE
*****
 31 35 0 0 0
SMALL
GASTEIGER

@<TRIPOS>ATOM
      1 C         141.4491  143.0164  165.0702 C.3     1  UNL1        0.0048
      2 C         142.2726  141.7788  164.8691 C.3     1  UNL1        0.0249
      3 C         142.4709  140.8174  166.0032 C.2     1  UNL1       -0.0078
      4 C         143.2944  139.5799  165.8020 C.2     1  UNL1        0.0546
      5 N         143.3145  138.8211  167.0958 N.2     1  UNL1       -0.2540
      6 C         142.5033  139.5896  168.0965 C.2     1  UNL1        0.0626
      7 C         142.1721  139.3253  169.5354 C.3     1  UNL1        0.0716
      8 C         141.3196  140.2948  170.2990 C.2     1  UNL1       -0.0159
      9 C         140.7982  141.5286  169.6238 C.2     1  UNL1        0.0676
     10 C         141.1294  141.7929  168.1849 C.2     1  UNL1        0.0044
     11 C         141.9820  140.8234  167.4213 C.2     1  UNL1        0.0110
     12 C         143.9197  139.3039  164.4667 C.3     1  UNL1        0.0456
     13 C         143.7214  140.2654  163.3326 C.3     1  UNL1        0.0089
     14 C         144.3466  139.9894  161.9974 C.3     1  UNL1        0.0178
     15 C         144.1484  140.9509  160.8633 C.3     1  UNL1        0.0721
     16 N         143.3248  142.1884  161.0645 N.3     1  UNL1       -0.2727
     17 C         142.6996  142.4644  162.3997 C.3     1  UNL1        0.0724
     18 C         142.8979  141.5029  163.5338 C.3     1  UNL1        0.0205
     19 C         139.9456  142.4981  170.3874 C.3     1  UNL1        0.4183
     20 F         139.0931  143.4676  171.1511 F       1  UNL1       -0.1659
     21 F         138.8061  141.5232  170.3531 F       1  UNL1       -0.1659
     22 F         141.0850  143.4730  170.4218 F       1  UNL1       -0.1659
     23 C         143.1265  143.1499  159.9303 C.3     1  UNL1        0.0721
     24 C         141.7408  143.4796  159.4601 C.3     1  UNL1        0.0173
     25 C         140.9405  144.5340  160.1656 C.3     1  UNL1        0.0016
     26 C         139.8312  144.1378  161.0941 C.3     1  UNL1        0.0050
     27 C         139.4761  145.0169  162.2565 C.3     1  UNL1        0.0322
     28 C         138.3666  144.6207  163.1851 C.3     1  UNL1        0.1422
     29 O         137.6123  143.3454  162.9513 O.3     1  UNL1       -0.3538
     30 C         137.9674  142.4663  161.7889 C.3     1  UNL1        0.1422
     31 C         139.0768  142.8625  160.8603 C.3     1  UNL1        0.0322
@<TRIPOS>BOND
     1     2     1    1
     2     2     3    1
     3     3     4    2
     4     4     5    1
     5     5     6    2
     6     6     7    1
     7     7     8    1
     8     8     9    2
     9     9    19    1
    10    19    20    1
    11    19    21    1
    12    19    22    1
    13     9    10    1
    14    10    11    2
    15     4    12    1
    16    13    12    1
    17    13    14    1
    18    14    15    1
    19    15    16    1
    20    16    23    1
    21    23    24    1
    22    24    25    1
    23    25    26    1
    24    26    27    1
    25    27    28    1
    26    28    29    1
    27    29    30    1
    28    30    31    1
    29    16    17    1
    30    18    17    1
    31    18     2    1
    32    11     3    1
    33    18    13    1
    34    11     6    1
    35    31    26    1
@<TRIPOS>MOLECULE
*****
 31 35 0 0 0
SMALL
GASTEIGER

@<TRIPOS>ATOM
      1 C         137.6729  139.4318  161.2866 C.3     1  UNL1        0.0048
      2 C         138.4359  140.7230  161.3154 C.3     1  UNL1        0.0249
      3 C         139.0116  141.2253  162.6063 C.2     1  UNL1       -0.0078
      4 C         139.7746  142.5164  162.6351 C.2     1  UNL1        0.0546
      5 N         140.2236  142.7580  164.0458 N.2     1  UNL1       -0.2540
      6 C         139.7382  141.6162  164.8888 C.2     1  UNL1        0.0626
      7 C         139.8814  141.3167  166.3515 C.3     1  UNL1        0.0716
      8 C         139.2757  140.0700  166.9246 C.2     1  UNL1       -0.0159
      9 C         138.5266  139.1226  166.0350 C.2     1  UNL1        0.0676
     10 C         138.3833  139.4221  164.5722 C.2     1  UNL1        0.0044
     11 C         138.9891  140.6689  163.9991 C.2     1  UNL1        0.0110
     12 C         139.9618  143.3053  161.3731 C.3     1  UNL1        0.0456
     13 C         139.3861  142.8030  160.0823 C.3     1  UNL1        0.0089
     14 C         139.5734  143.5919  158.8202 C.3     1  UNL1        0.0178
     15 C         138.9977  143.0896  157.5294 C.3     1  UNL1        0.0721
     16 N         138.2348  141.7985  157.5006 N.3     1  UNL1       -0.2727
     17 C         138.0474  141.0095  158.7625 C.3     1  UNL1        0.0724
     18 C         138.6232  141.5119  160.0534 C.3     1  UNL1        0.0205
     19 C         137.9208  137.8758  166.6081 C.3     1  UNL1        0.4183
     20 F         137.3150  136.6290  167.1813 F       1  UNL1       -0.1659
     21 F         138.5077  137.0740  165.4845 F       1  UNL1       -0.1659
     22 F         137.3338  138.6776  167.7318 F       1  UNL1       -0.1659
     23 C         137.6590  141.2961  156.2097 C.3     1  UNL1        0.0721
     24 C         136.2239  141.5714  155.8711 C.3     1  UNL1        0.0173
     25 C         135.3253  140.4487  155.4445 C.3     1  UNL1        0.0016
     26 C         133.8867  140.4369  155.8688 C.3     1  UNL1        0.0050
     27 C         132.8856  141.2917  155.1496 C.3     1  UNL1        0.0322
     28 C         131.4469  141.2799  155.5740 C.3     1  UNL1        0.1422
     29 O         131.0093  140.4134  156.7174 O.3     1  UNL1       -0.3538
     30 C         132.0103  139.5585  157.4366 C.3     1  UNL1        0.1422
     31 C         133.4490  139.5703  157.0124 C.3     1  UNL1        0.0322
@<TRIPOS>BOND
     1     2     1    1
     2     2     3    1
     3     3     4    2
     4     4     5    1
     5     5     6    2
     6     6     7    1
     7     7     8    1
     8     8     9    2
     9     9    19    1
    10    19    20    1
    11    19    21    1
    12    19    22    1
    13     9    10    1
    14    10    11    2
    15     4    12    1
    16    13    12    1
    17    13    14    1
    18    14    15    1
    19    15    16    1
    20    16    23    1
    21    23    24    1
    22    24    25    1
    23    25    26    1
    24    26    27    1
    25    27    28    1
    26    28    29    1
    27    29    30    1
    28    30    31    1
    29    16    17    1
    30    18    17    1
    31    18     2    1
    32    11     3    1
    33    18    13    1
    34    11     6    1
    35    31    26    1
@<TRIPOS>MOLECULE
*****
 31 35 0 0 0
SMALL
GASTEIGER

@<TRIPOS>ATOM
      1 C         140.5115  140.7965  164.3007 C.3     1  UNL1        0.0048
      2 C         141.8158  141.5376  164.3070 C.3     1  UNL1        0.0249
      3 C         142.4302  141.9635  165.6074 C.2     1  UNL1       -0.0078
      4 C         143.7343  142.7045  165.6136 C.2     1  UNL1        0.0546
      5 N         144.0959  142.9944  167.0402 N.2     1  UNL1       -0.2540
      6 C         143.0152  142.4326  167.9157 C.2     1  UNL1        0.0626
      7 C         142.8356  142.4188  169.4048 C.3     1  UNL1        0.0716
      8 C         141.6265  141.7679  170.0084 C.2     1  UNL1       -0.0159
      9 C         140.5970  141.1308  169.1228 C.2     1  UNL1        0.0676
     10 C         140.7766  141.1446  167.6337 C.2     1  UNL1        0.0044
     11 C         141.9857  141.7954  167.0301 C.2     1  UNL1        0.0110
     12 C         144.4241  143.0196  164.3194 C.3     1  UNL1        0.0456
     13 C         143.8098  142.5936  163.0190 C.3     1  UNL1        0.0089
     14 C         144.4996  142.9086  161.7248 C.3     1  UNL1        0.0178
     15 C         143.8852  142.4827  160.4243 C.3     1  UNL1        0.0721
     16 N         142.5810  141.7417  160.4182 N.3     1  UNL1       -0.2727
     17 C         141.8912  141.4266  161.7123 C.3     1  UNL1        0.0724
     18 C         142.5056  141.8526  163.0128 C.3     1  UNL1        0.0205
     19 C         139.3878  140.4799  169.7265 C.3     1  UNL1        0.4183
     20 F         138.1787  139.8290  170.3301 F       1  UNL1       -0.1659
     21 F         138.8333  140.2372  168.3541 F       1  UNL1       -0.1659
     22 F         139.9423  140.7226  171.0989 F       1  UNL1       -0.1659
     23 C         141.9666  141.3157  159.1177 C.3     1  UNL1        0.0721
     24 C         140.7269  140.4713  159.1149 C.3     1  UNL1        0.0173
     25 C         140.8221  138.9984  159.3823 C.3     1  UNL1        0.0016
     26 C         140.4194  138.4513  160.7195 C.3     1  UNL1        0.0050
     27 C         141.4610  137.9076  161.6520 C.3     1  UNL1        0.0322
     28 C         141.0582  137.3604  162.9894 C.3     1  UNL1        0.1422
     29 O         139.6139  137.3569  163.3943 O.3     1  UNL1       -0.3538
     30 C         138.5723  137.9006  162.4618 C.3     1  UNL1        0.1422
     31 C         138.9750  138.4478  161.1245 C.3     1  UNL1        0.0322
@<TRIPOS>BOND
     1     2     1    1
     2     2     3    1
     3     3     4    2
     4     4     5    1
     5     5     6    2
     6     6     7    1
     7     7     8    1
     8     8     9    2
     9     9    19    1
    10    19    20    1
    11    19    21    1
    12    19    22    1
    13     9    10    1
    14    10    11    2
    15     4    12    1
    16    13    12    1
    17    13    14    1
    18    14    15    1
    19    15    16    1
    20    16    23    1
    21    23    24    1
    22    24    25    1
    23    25    26    1
    24    26    27    1
    25    27    28    1
    26    28    29    1
    27    29    30    1
    28    30    31    1
    29    16    17    1
    30    18    17    1
    31    18     2    1
    32    11     3    1
    33    18    13    1
    34    11     6    1
    35    31    26    1
@<TRIPOS>MOLECULE
*****
 31 35 0 0 0
SMALL
GASTEIGER

@<TRIPOS>ATOM
      1 C         140.5114  140.9805  164.1282 C.3     1  UNL1        0.0048
      2 C         141.8399  141.6728  164.2062 C.3     1  UNL1        0.0249
      3 C         142.4141  142.0456  165.5408 C.2     1  UNL1       -0.0078
      4 C         143.7426  142.7378  165.6187 C.2     1  UNL1        0.0546
      5 N         144.0543  142.9810  167.0657 N.2     1  UNL1       -0.2540
      6 C         142.9185  142.4391  167.8820 C.2     1  UNL1        0.0626
      7 C         142.6764  142.3974  169.3617 C.3     1  UNL1        0.0716
      8 C         141.4206  141.7776  169.8990 C.2     1  UNL1       -0.0159
      9 C         140.4069  141.1994  168.9565 C.2     1  UNL1        0.0676
     10 C         140.6490  141.2411  167.4768 C.2     1  UNL1        0.0044
     11 C         141.9048  141.8610  166.9395 C.2     1  UNL1        0.0110
     12 C         144.4967  143.0573  164.3620 C.3     1  UNL1        0.0456
     13 C         143.9224  142.6845  163.0274 C.3     1  UNL1        0.0089
     14 C         144.6766  143.0039  161.7707 C.3     1  UNL1        0.0178
     15 C         144.1023  142.6311  160.4361 C.3     1  UNL1        0.0721
     16 N         142.7739  141.9389  160.3582 N.3     1  UNL1       -0.2727
     17 C         142.0197  141.6194  161.6148 C.3     1  UNL1        0.0724
     18 C         142.5940  141.9922  162.9495 C.3     1  UNL1        0.0205
     19 C         139.1510  140.5796  169.4939 C.3     1  UNL1        0.4183
     20 F         137.8953  139.9598  170.0312 F       1  UNL1       -0.1659
     21 F         139.2708  139.4690  168.4928 F       1  UNL1       -0.1659
     22 F         139.0313  141.6902  170.4949 F       1  UNL1       -0.1659
     23 C         142.1996  141.5660  159.0235 C.3     1  UNL1        0.0721
     24 C         140.9299  142.2076  158.5477 C.3     1  UNL1        0.0173
     25 C         139.6302  141.4661  158.6518 C.3     1  UNL1        0.0016
     26 C         138.8571  141.4844  159.9371 C.3     1  UNL1        0.0050
     27 C         138.2697  140.2142  160.4771 C.3     1  UNL1        0.0322
     28 C         137.4966  140.2325  161.7624 C.3     1  UNL1        0.1422
     29 O         137.3109  141.5209  162.5077 O.3     1  UNL1       -0.3538
     30 C         137.8982  142.7911  161.9677 C.3     1  UNL1        0.1422
     31 C         138.6714  142.7729  160.6824 C.3     1  UNL1        0.0322
@<TRIPOS>BOND
     1     2     1    1
     2     2     3    1
     3     3     4    2
     4     4     5    1
     5     5     6    2
     6     6     7    1
     7     7     8    1
     8     8     9    2
     9     9    19    1
    10    19    20    1
    11    19    21    1
    12    19    22    1
    13     9    10    1
    14    10    11    2
    15     4    12    1
    16    13    12    1
    17    13    14    1
    18    14    15    1
    19    15    16    1
    20    16    23    1
    21    23    24    1
    22    24    25    1
    23    25    26    1
    24    26    27    1
    25    27    28    1
    26    28    29    1
    27    29    30    1
    28    30    31    1
    29    16    17    1
    30    18    17    1
    31    18     2    1
    32    11     3    1
    33    18    13    1
    34    11     6    1
    35    31    26    1
@<TRIPOS>MOLECULE
*****
 31 35 0 0 0
SMALL
GASTEIGER

@<TRIPOS>ATOM
      1 C         141.4532  142.5579  164.9543 C.3     1  UNL1        0.0048
      2 C         142.2150  141.2657  164.9742 C.3     1  UNL1        0.0249
      3 C         142.4149  140.5327  166.2675 C.2     1  UNL1       -0.0078
      4 C         143.1766  139.2407  166.2872 C.2     1  UNL1        0.0546
      5 N         143.2133  138.7459  167.7028 N.2     1  UNL1       -0.2540
      6 C         142.4742  139.7321  168.5579 C.2     1  UNL1        0.0626
      7 C         142.1868  139.7672  170.0296 C.3     1  UNL1        0.0716
      8 C         141.4059  140.9066  170.6143 C.2     1  UNL1       -0.0159
      9 C         140.9125  142.0110  169.7272 C.2     1  UNL1        0.0676
     10 C         141.1999  141.9759  168.2554 C.2     1  UNL1        0.0044
     11 C         141.9808  140.8364  167.6708 C.2     1  UNL1        0.0110
     12 C         143.7384  138.6817  165.0137 C.3     1  UNL1        0.0456
     13 C         143.5385  139.4147  163.7204 C.3     1  UNL1        0.0089
     14 C         144.1004  138.8557  162.4468 C.3     1  UNL1        0.0178
     15 C         143.9005  139.5888  161.1535 C.3     1  UNL1        0.0721
     16 N         143.1387  140.8808  161.1338 N.3     1  UNL1       -0.2727
     17 C         142.5769  141.4399  162.4072 C.3     1  UNL1        0.0724
     18 C         142.7768  140.7067  163.7006 C.3     1  UNL1        0.0205
     19 C         140.1316  143.1505  170.3119 C.3     1  UNL1        0.4183
     20 F         139.3508  144.2899  170.8966 F       1  UNL1       -0.1659
     21 F         138.9692  142.2325  170.5487 F       1  UNL1       -0.1659
     22 F         141.2940  144.0685  170.0751 F       1  UNL1       -0.1659
     23 C         142.9388  141.6139  159.8404 C.3     1  UNL1        0.0721
     24 C         141.9313  141.1186  158.8455 C.3     1  UNL1        0.0173
     25 C         140.4696  141.3686  159.0706 C.3     1  UNL1        0.0016
     26 C         139.6511  140.3820  159.8494 C.3     1  UNL1        0.0050
     27 C         140.2517  139.0718  160.2650 C.3     1  UNL1        0.0322
     28 C         139.4332  138.0850  161.0439 C.3     1  UNL1        0.1422
     29 O         138.0143  138.4085  161.4071 O.3     1  UNL1       -0.3538
     30 C         137.4137  139.7187  160.9915 C.3     1  UNL1        0.1422
     31 C         138.2321  140.7054  160.2127 C.3     1  UNL1        0.0322
@<TRIPOS>BOND
     1     2     1    1
     2     2     3    1
     3     3     4    2
     4     4     5    1
     5     5     6    2
     6     6     7    1
     7     7     8    1
     8     8     9    2
     9     9    19    1
    10    19    20    1
    11    19    21    1
    12    19    22    1
    13     9    10    1
    14    10    11    2
    15     4    12    1
    16    13    12    1
    17    13    14    1
    18    14    15    1
    19    15    16    1
    20    16    23    1
    21    23    24    1
    22    24    25    1
    23    25    26    1
    24    26    27    1
    25    27    28    1
    26    28    29    1
    27    29    30    1
    28    30    31    1
    29    16    17    1
    30    18    17    1
    31    18     2    1
    32    11     3    1
    33    18    13    1
    34    11     6    1
    35    31    26    1
@<TRIPOS>MOLECULE
*****
 31 35 0 0 0
SMALL
GASTEIGER

@<TRIPOS>ATOM
      1 C         142.9534  142.1403  162.2004 C.3     1  UNL1        0.0048
      2 C         141.8260  143.0059  162.6797 C.3     1  UNL1        0.0249
      3 C         141.1386  143.9381  161.7265 C.2     1  UNL1       -0.0078
      4 C         140.0112  144.8037  162.2058 C.2     1  UNL1        0.0546
      5 N         139.5271  145.6196  161.0439 N.2     1  UNL1       -0.2540
      6 C         140.3552  145.2583  159.8466 C.2     1  UNL1        0.0626
      7 C         140.3310  145.7412  158.4267 C.3     1  UNL1        0.0716
      8 C         141.3029  145.1850  157.4287 C.2     1  UNL1       -0.0159
      9 C         142.2989  144.1458  157.8505 C.2     1  UNL1        0.0676
     10 C         142.3230  143.6628  159.2704 C.2     1  UNL1        0.0044
     11 C         141.3512  144.2190  160.2684 C.2     1  UNL1        0.0110
     12 C         139.5712  144.7372  163.6383 C.3     1  UNL1        0.0456
     13 C         140.2585  143.8050  164.5914 C.3     1  UNL1        0.0089
     14 C         139.8185  143.7384  166.0239 C.3     1  UNL1        0.0178
     15 C         140.5059  142.8063  166.9771 C.3     1  UNL1        0.0721
     16 N         141.6332  141.9406  166.4978 N.3     1  UNL1       -0.2727
     17 C         142.0733  142.0071  165.0654 C.3     1  UNL1        0.0724
     18 C         141.3859  142.9394  164.1122 C.3     1  UNL1        0.0205
     19 C         143.2707  143.5895  156.8524 C.3     1  UNL1        0.4183
     20 F         144.2425  143.0333  155.8543 F       1  UNL1       -0.1659
     21 F         144.0720  142.9871  157.9682 F       1  UNL1       -0.1659
     22 F         142.4695  144.1919  155.7366 F       1  UNL1       -0.1659
     23 C         142.3206  141.0084  167.4510 C.3     1  UNL1        0.0721
     24 C         142.1851  139.5246  167.2779 C.3     1  UNL1        0.0173
     25 C         143.1382  138.7833  166.3879 C.3     1  UNL1        0.0016
     26 C         142.7207  138.3942  165.0008 C.3     1  UNL1        0.0050
     27 C         143.5593  138.7975  163.8243 C.3     1  UNL1        0.0322
     28 C         143.1418  138.4084  162.4370 C.3     1  UNL1        0.1422
     29 O         141.8857  137.6161  162.2263 O.3     1  UNL1       -0.3538
     30 C         141.0471  137.2128  163.4028 C.3     1  UNL1        0.1422
     31 C         141.4645  137.6019  164.7900 C.3     1  UNL1        0.0322
@<TRIPOS>BOND
     1     2     1    1
     2     2     3    1
     3     3     4    2
     4     4     5    1
     5     5     6    2
     6     6     7    1
     7     7     8    1
     8     8     9    2
     9     9    19    1
    10    19    20    1
    11    19    21    1
    12    19    22    1
    13     9    10    1
    14    10    11    2
    15     4    12    1
    16    13    12    1
    17    13    14    1
    18    14    15    1
    19    15    16    1
    20    16    23    1
    21    23    24    1
    22    24    25    1
    23    25    26    1
    24    26    27    1
    25    27    28    1
    26    28    29    1
    27    29    30    1
    28    30    31    1
    29    16    17    1
    30    18    17    1
    31    18     2    1
    32    11     3    1
    33    18    13    1
    34    11     6    1
    35    31    26    1
