@<TRIPOS>MOLECULE
*****
 28 30 0 0 0
SMALL
GASTEIGER

@<TRIPOS>ATOM
      1 C         141.0106  140.2421  168.6917 C.ar    1  UNL1        0.1457
      2 C         140.3255  140.5251  169.9957 C.ar    1  UNL1        0.1061
      3 C         138.8725  140.1940  170.1669 C.ar    1  UNL1        0.1063
      4 N         138.1047  139.5801  169.0340 N.ar    1  UNL1       -0.2435
      5 C         138.7898  139.2971  167.7299 C.ar    1  UNL1        0.0842
      6 C         138.0220  138.6831  166.5971 C.ar    1  UNL1        0.0192
      7 C         138.7071  138.4001  165.2931 C.ar    1  UNL1        0.0016
      8 C         140.1601  138.7312  165.1219 C.ar    1  UNL1        0.0017
      9 C         140.9279  139.3451  166.2548 C.ar    1  UNL1        0.0046
     10 C         140.2428  139.6281  167.5588 C.ar    1  UNL1        0.0518
     11 C         140.8452  138.4482  163.8178 C.ar    1  UNL1        0.0192
     12 C         142.3335  138.5969  163.7048 C.ar    1  UNL1        0.0031
     13 C         143.0186  138.3139  162.4007 C.ar    1  UNL1        0.0207
     14 C         142.2154  137.8822  161.2097 C.ar    1  UNL1        0.0989
     15 N         140.7270  137.7334  161.3228 N.ar    1  UNL1       -0.2423
     16 C         140.0420  138.0164  162.6268 C.ar    1  UNL1        0.0988
     17 C         141.0933  141.1391  171.1287 C.2     1  UNL1        0.2472
     18 N         142.4511  140.6118  171.4872 N.am    1  UNL1       -0.3252
     19 O         140.5034  142.2803  171.9030 O.2     1  UNL1       -0.2702
     20 H         142.8383  139.8628  170.9790 H       1  UNL1        0.1453
     21 H         142.9550  141.0148  172.2308 H       1  UNL1        0.1453
     22 O         142.4636  140.5731  168.5206 O.3     1  UNL1       -0.4752
     23 C         142.8716  141.9380  168.0506 C.3     1  UNL1        0.2053
     24 C         142.6205  142.3480  166.6297 C.3     1  UNL1        0.0438
     25 C         140.7677  142.6812  164.8391 C.3     1  UNL1        0.0001
     26 C         141.2813  142.8944  166.2322 C.3     1  UNL1        0.0037
     27 C         143.7087  142.2115  165.6063 C.3     1  UNL1        0.0037
     28 C         144.5019  143.4146  165.1900 C.3     1  UNL1        0.0001
@<TRIPOS>BOND
     1    25    26    1
     2    26    24    1
     3    24    27    1
     4    27    28    1
     5    24    23    1
     6    23    22    1
     7    22     1    1
     8     1     2   ar
     9     2    17    1
    10    17    18   am
    11    17    19    2
    12     2     3   ar
    13     3     4   ar
    14     4     5   ar
    15     5     6   ar
    16     6     7   ar
    17     7     8   ar
    18     8    11    1
    19    11    12   ar
    20    12    13   ar
    21    13    14   ar
    22    14    15   ar
    23    15    16   ar
    24     8     9   ar
    25     9    10   ar
    26    10     1   ar
    27    10     5   ar
    28    16    11   ar
    29    18    20    1
    30    18    21    1
@<TRIPOS>MOLECULE
*****
 28 30 0 0 0
SMALL
GASTEIGER

@<TRIPOS>ATOM
      1 C         141.0717  141.6604  168.0605 C.ar    1  UNL1        0.1457
      2 C         141.3790  141.6329  169.5284 C.ar    1  UNL1        0.1061
      3 C         140.6007  140.7320  170.4408 C.ar    1  UNL1        0.1063
      4 N         139.5151  139.8585  169.8854 N.ar    1  UNL1       -0.2435
      5 C         139.2078  139.8860  168.4174 C.ar    1  UNL1        0.0842
      6 C         138.1222  139.0126  167.8619 C.ar    1  UNL1        0.0192
      7 C         137.8149  139.0400  166.3940 C.ar    1  UNL1        0.0016
      8 C         138.5933  139.9410  165.4816 C.ar    1  UNL1        0.0017
      9 C         139.6788  140.8144  166.0370 C.ar    1  UNL1        0.0046
     10 C         139.9861  140.7869  167.5049 C.ar    1  UNL1        0.0518
     11 C         138.2859  139.9684  164.0136 C.ar    1  UNL1        0.0192
     12 C         138.5585  138.7602  163.1676 C.ar    1  UNL1        0.0031
     13 C         138.2512  138.7876  161.6996 C.ar    1  UNL1        0.0207
     14 C         137.6713  140.0234  161.0777 C.ar    1  UNL1        0.0989
     15 N         137.3987  141.2317  161.9239 N.ar    1  UNL1       -0.2423
     16 C         137.7061  141.2042  163.3918 C.ar    1  UNL1        0.0988
     17 C         142.4646  142.5064  170.0839 C.2     1  UNL1        0.2472
     18 N         143.8834  142.0197  170.1016 N.am    1  UNL1       -0.3252
     19 O         142.1315  143.8664  170.6216 O.2     1  UNL1       -0.2702
     20 H         144.1020  141.1270  169.7487 H       1  UNL1        0.1453
     21 H         144.5959  142.5930  170.4662 H       1  UNL1        0.1453
     22 O         141.8500  142.5613  167.1480 O.3     1  UNL1       -0.4752
     23 C         143.1202  142.0732  166.5165 C.3     1  UNL1        0.2053
     24 C         143.0645  141.1984  165.2993 C.3     1  UNL1        0.0438
     25 C         143.0723  138.9536  166.6073 C.3     1  UNL1        0.0001
     26 C         143.4529  139.7528  165.3963 C.3     1  UNL1        0.0037
     27 C         142.6206  141.7692  163.9851 C.3     1  UNL1        0.0037
     28 C         141.8176  140.9301  163.0359 C.3     1  UNL1        0.0001
@<TRIPOS>BOND
     1    25    26    1
     2    26    24    1
     3    24    27    1
     4    27    28    1
     5    24    23    1
     6    23    22    1
     7    22     1    1
     8     1     2   ar
     9     2    17    1
    10    17    18   am
    11    17    19    2
    12     2     3   ar
    13     3     4   ar
    14     4     5   ar
    15     5     6   ar
    16     6     7   ar
    17     7     8   ar
    18     8    11    1
    19    11    12   ar
    20    12    13   ar
    21    13    14   ar
    22    14    15   ar
    23    15    16   ar
    24     8     9   ar
    25     9    10   ar
    26    10     1   ar
    27    10     5   ar
    28    16    11   ar
    29    18    20    1
    30    18    21    1
@<TRIPOS>MOLECULE
*****
 28 30 0 0 0
SMALL
GASTEIGER

@<TRIPOS>ATOM
      1 C         140.7303  141.6702  167.7959 C.ar    1  UNL1        0.1457
      2 C         140.6655  141.9974  169.2583 C.ar    1  UNL1        0.1061
      3 C         139.7252  141.2465  170.1540 C.ar    1  UNL1        0.1063
      4 N         138.8498  140.1684  169.5872 N.ar    1  UNL1       -0.2435
      5 C         138.9146  139.8411  168.1247 C.ar    1  UNL1        0.0842
      6 C         138.0391  138.7630  167.5580 C.ar    1  UNL1        0.0192
      7 C         138.1039  138.4358  166.0956 C.ar    1  UNL1        0.0016
      8 C         139.0441  139.1867  165.1999 C.ar    1  UNL1        0.0017
      9 C         139.9196  140.2648  165.7667 C.ar    1  UNL1        0.0046
     10 C         139.8548  140.5920  167.2291 C.ar    1  UNL1        0.0518
     11 C         139.1089  138.8594  163.7374 C.ar    1  UNL1        0.0192
     12 C         138.0917  139.4315  162.7951 C.ar    1  UNL1        0.0031
     13 C         138.1565  139.1042  161.3326 C.ar    1  UNL1        0.0207
     14 C         139.2384  138.2048  160.8126 C.ar    1  UNL1        0.0989
     15 N         140.2557  137.6327  161.7550 N.ar    1  UNL1       -0.2423
     16 C         140.1909  137.9600  163.2174 C.ar    1  UNL1        0.0988
     17 C         141.5409  143.0755  169.8252 C.2     1  UNL1        0.2472
     18 N         143.0280  142.8854  169.8748 N.am    1  UNL1       -0.3252
     19 O         140.9293  144.3438  170.3423 O.2     1  UNL1       -0.2702
     20 H         143.4294  142.0530  169.5354 H       1  UNL1        0.1453
     21 H         143.6026  143.5930  170.2469 H       1  UNL1        0.1453
     22 O         141.6705  142.4210  166.9003 O.3     1  UNL1       -0.4752
     23 C         143.0072  141.8342  166.5555 C.3     1  UNL1        0.2053
     24 C         143.2333  141.2270  165.2026 C.3     1  UNL1        0.0438
     25 C         141.8965  141.4720  162.9884 C.3     1  UNL1        0.0001
     26 C         142.9010  142.0072  163.9654 C.3     1  UNL1        0.0037
     27 C         143.7916  139.8395  165.0871 C.3     1  UNL1        0.0037
     28 C         143.2084  138.7258  165.9053 C.3     1  UNL1        0.0001
@<TRIPOS>BOND
     1    25    26    1
     2    26    24    1
     3    24    27    1
     4    27    28    1
     5    24    23    1
     6    23    22    1
     7    22     1    1
     8     1     2   ar
     9     2    17    1
    10    17    18   am
    11    17    19    2
    12     2     3   ar
    13     3     4   ar
    14     4     5   ar
    15     5     6   ar
    16     6     7   ar
    17     7     8   ar
    18     8    11    1
    19    11    12   ar
    20    12    13   ar
    21    13    14   ar
    22    14    15   ar
    23    15    16   ar
    24     8     9   ar
    25     9    10   ar
    26    10     1   ar
    27    10     5   ar
    28    16    11   ar
    29    18    20    1
    30    18    21    1
@<TRIPOS>MOLECULE
*****
 28 30 0 0 0
SMALL
GASTEIGER

@<TRIPOS>ATOM
      1 C         140.2232  144.3343  163.2164 C.ar    1  UNL1        0.1457
      2 C         140.8338  144.7811  161.9212 C.ar    1  UNL1        0.1061
      3 C         142.2661  144.4567  161.6160 C.ar    1  UNL1        0.1063
      4 N         143.0879  143.6855  162.6059 N.ar    1  UNL1       -0.2435
      5 C         142.4773  143.2386  163.9011 C.ar    1  UNL1        0.0842
      6 C         143.2990  142.4674  164.8910 C.ar    1  UNL1        0.0192
      7 C         142.6884  142.0206  166.1862 C.ar    1  UNL1        0.0016
      8 C         141.2561  142.3450  166.4914 C.ar    1  UNL1        0.0017
      9 C         140.4343  143.1162  165.5015 C.ar    1  UNL1        0.0046
     10 C         141.0449  143.5630  164.2064 C.ar    1  UNL1        0.0518
     11 C         140.6455  141.8982  167.7867 C.ar    1  UNL1        0.0192
     12 C         140.5076  142.8662  168.9242 C.ar    1  UNL1        0.0031
     13 C         139.8970  142.4193  170.2194 C.ar    1  UNL1        0.0207
     14 C         139.4243  141.0045  170.3771 C.ar    1  UNL1        0.0989
     15 N         139.5622  140.0365  169.2395 N.ar    1  UNL1       -0.2423
     16 C         140.1728  140.4834  167.9443 C.ar    1  UNL1        0.0988
     17 C         140.0120  145.5523  160.9312 C.2     1  UNL1        0.2472
     18 N         139.2150  146.7404  161.3820 N.am    1  UNL1       -0.3252
     19 O         139.9874  145.1354  159.4906 O.2     1  UNL1       -0.2702
     20 H         139.2312  147.0140  162.3276 H       1  UNL1        0.1453
     21 H         138.6757  147.2466  160.7323 H       1  UNL1        0.1453
     22 O         138.7909  144.6587  163.5216 O.3     1  UNL1       -0.4752
     23 C         137.6910  143.8288  162.9284 C.3     1  UNL1        0.2053
     24 C         137.7413  142.3332  163.0312 C.3     1  UNL1        0.0438
     25 C         138.4835  142.1401  160.5489 C.3     1  UNL1        0.0001
     26 C         137.9547  141.5035  161.7999 C.3     1  UNL1        0.0037
     27 C         137.5781  141.6672  164.3654 C.3     1  UNL1        0.0037
     28 C         138.2130  140.3323  164.6199 C.3     1  UNL1        0.0001
@<TRIPOS>BOND
     1    25    26    1
     2    26    24    1
     3    24    27    1
     4    27    28    1
     5    24    23    1
     6    23    22    1
     7    22     1    1
     8     1     2   ar
     9     2    17    1
    10    17    18   am
    11    17    19    2
    12     2     3   ar
    13     3     4   ar
    14     4     5   ar
    15     5     6   ar
    16     6     7   ar
    17     7     8   ar
    18     8    11    1
    19    11    12   ar
    20    12    13   ar
    21    13    14   ar
    22    14    15   ar
    23    15    16   ar
    24     8     9   ar
    25     9    10   ar
    26    10     1   ar
    27    10     5   ar
    28    16    11   ar
    29    18    20    1
    30    18    21    1
@<TRIPOS>MOLECULE
*****
 28 30 0 0 0
SMALL
GASTEIGER

@<TRIPOS>ATOM
      1 C         140.3101  141.5518  168.0368 C.ar    1  UNL1        0.1457
      2 C         139.9694  141.6326  169.4953 C.ar    1  UNL1        0.1061
      3 C         138.9912  140.6645  170.0918 C.ar    1  UNL1        0.1063
      4 N         138.3537  139.6155  169.2297 N.ar    1  UNL1       -0.2435
      5 C         138.6944  139.5346  167.7711 C.ar    1  UNL1        0.0842
      6 C         138.0568  138.4856  166.9091 C.ar    1  UNL1        0.0192
      7 C         138.3975  138.4048  165.4506 C.ar    1  UNL1        0.0016
      8 C         139.3757  139.3729  164.8541 C.ar    1  UNL1        0.0017
      9 C         140.0133  140.4219  165.7161 C.ar    1  UNL1        0.0046
     10 C         139.6726  140.5027  167.1746 C.ar    1  UNL1        0.0518
     11 C         139.7164  139.2920  163.3955 C.ar    1  UNL1        0.0192
     12 C         140.5566  140.3605  162.7611 C.ar    1  UNL1        0.0031
     13 C         140.8973  140.2796  161.3025 C.ar    1  UNL1        0.0207
     14 C         140.3977  139.1302  160.4783 C.ar    1  UNL1        0.0989
     15 N         139.5575  138.0617  161.1127 N.ar    1  UNL1       -0.2423
     16 C         139.2168  138.1427  162.5712 C.ar    1  UNL1        0.0988
     17 C         140.6070  142.6816  170.3574 C.2     1  UNL1        0.2472
     18 N         140.4033  144.1345  170.0451 N.am    1  UNL1       -0.3252
     19 O         141.4482  142.2777  171.5318 O.2     1  UNL1       -0.2702
     20 H         139.8512  144.3996  169.2743 H       1  UNL1        0.1453
     21 H         140.8217  144.8230  170.6109 H       1  UNL1        0.1453
     22 O         141.2883  142.5199  167.4403 O.3     1  UNL1       -0.4752
     23 C         142.7442  142.1658  167.3671 C.3     1  UNL1        0.2053
     24 C         143.4605  142.2060  166.0497 C.3     1  UNL1        0.0438
     25 C         143.4374  139.6432  165.6240 C.3     1  UNL1        0.0001
     26 C         143.3550  141.0474  165.1030 C.3     1  UNL1        0.0037
     27 C         144.2823  143.4050  165.6792 C.3     1  UNL1        0.0037
     28 C         143.9591  144.1808  164.4367 C.3     1  UNL1        0.0001
@<TRIPOS>BOND
     1    25    26    1
     2    26    24    1
     3    24    27    1
     4    27    28    1
     5    24    23    1
     6    23    22    1
     7    22     1    1
     8     1     2   ar
     9     2    17    1
    10    17    18   am
    11    17    19    2
    12     2     3   ar
    13     3     4   ar
    14     4     5   ar
    15     5     6   ar
    16     6     7   ar
    17     7     8   ar
    18     8    11    1
    19    11    12   ar
    20    12    13   ar
    21    13    14   ar
    22    14    15   ar
    23    15    16   ar
    24     8     9   ar
    25     9    10   ar
    26    10     1   ar
    27    10     5   ar
    28    16    11   ar
    29    18    20    1
    30    18    21    1
@<TRIPOS>MOLECULE
*****
 28 30 0 0 0
SMALL
GASTEIGER

@<TRIPOS>ATOM
      1 C         141.9890  139.3497  163.6338 C.ar    1  UNL1        0.1457
      2 C         141.9202  138.4911  162.4057 C.ar    1  UNL1        0.1061
      3 C         140.7451  137.5844  162.1893 C.ar    1  UNL1        0.1063
      4 N         139.6387  137.5361  163.2010 N.ar    1  UNL1       -0.2435
      5 C         139.7074  138.3946  164.4291 C.ar    1  UNL1        0.0842
      6 C         138.6010  138.3464  165.4408 C.ar    1  UNL1        0.0192
      7 C         138.6697  139.2049  166.6688 C.ar    1  UNL1        0.0016
      8 C         139.8449  140.1116  166.8852 C.ar    1  UNL1        0.0017
      9 C         140.9513  140.1599  165.8736 C.ar    1  UNL1        0.0046
     10 C         140.8825  139.3014  164.6455 C.ar    1  UNL1        0.0518
     11 C         139.9135  140.9702  168.1134 C.ar    1  UNL1        0.0192
     12 C         140.5447  142.3291  168.0442 C.ar    1  UNL1        0.0031
     13 C         140.6134  143.1877  169.2723 C.ar    1  UNL1        0.0207
     14 C         140.0509  142.6872  170.5697 C.ar    1  UNL1        0.0989
     15 N         139.4197  141.3282  170.6388 N.ar    1  UNL1       -0.2423
     16 C         139.3510  140.4697  169.4107 C.ar    1  UNL1        0.0988
     17 C         143.0267  138.5394  161.3940 C.2     1  UNL1        0.2472
     18 N         144.4503  138.3582  161.8303 N.am    1  UNL1       -0.3252
     19 O         142.7094  138.7688  159.9460 O.2     1  UNL1       -0.2702
     20 H         144.6586  138.2076  162.7807 H       1  UNL1        0.1453
     21 H         145.1765  138.3898  161.1663 H       1  UNL1        0.1453
     22 O         143.1641  140.2564  163.8502 O.3     1  UNL1       -0.4752
     23 C         143.1378  141.6584  163.3172 C.3     1  UNL1        0.2053
     24 C         142.4293  142.7378  164.0806 C.3     1  UNL1        0.0438
     25 C         144.5650  143.4695  165.3664 C.3     1  UNL1        0.0001
     26 C         143.0720  143.3449  165.2923 C.3     1  UNL1        0.0037
     27 C         141.0780  143.2101  163.6323 C.3     1  UNL1        0.0037
     28 C         140.0562  143.6313  164.6465 C.3     1  UNL1        0.0001
@<TRIPOS>BOND
     1    25    26    1
     2    26    24    1
     3    24    27    1
     4    27    28    1
     5    24    23    1
     6    23    22    1
     7    22     1    1
     8     1     2   ar
     9     2    17    1
    10    17    18   am
    11    17    19    2
    12     2     3   ar
    13     3     4   ar
    14     4     5   ar
    15     5     6   ar
    16     6     7   ar
    17     7     8   ar
    18     8    11    1
    19    11    12   ar
    20    12    13   ar
    21    13    14   ar
    22    14    15   ar
    23    15    16   ar
    24     8     9   ar
    25     9    10   ar
    26    10     1   ar
    27    10     5   ar
    28    16    11   ar
    29    18    20    1
    30    18    21    1
@<TRIPOS>MOLECULE
*****
 28 30 0 0 0
SMALL
GASTEIGER

@<TRIPOS>ATOM
      1 C         139.3469  142.9067  164.1324 C.ar    1  UNL1        0.1457
      2 C         138.6405  142.8628  162.8100 C.ar    1  UNL1        0.1061
      3 C         137.8031  141.6727  162.4461 C.ar    1  UNL1        0.1063
      4 N         137.6722  140.5264  163.4047 N.ar    1  UNL1       -0.2435
      5 C         138.3787  140.5702  164.7272 C.ar    1  UNL1        0.0842
      6 C         138.2478  139.4240  165.6858 C.ar    1  UNL1        0.0192
      7 C         138.9543  139.4679  167.0082 C.ar    1  UNL1        0.0016
      8 C         139.7916  140.6580  167.3721 C.ar    1  UNL1        0.0017
      9 C         139.9225  141.8042  166.4135 C.ar    1  UNL1        0.0046
     10 C         139.2161  141.7604  165.0911 C.ar    1  UNL1        0.0518
     11 C         140.4981  140.7018  168.6946 C.ar    1  UNL1        0.0192
     12 C         141.9472  140.3247  168.7837 C.ar    1  UNL1        0.0031
     13 C         142.6537  140.3686  170.1062 C.ar    1  UNL1        0.0207
     14 C         141.9111  140.7894  171.3396 C.ar    1  UNL1        0.0989
     15 N         140.4619  141.1665  171.2505 N.ar    1  UNL1       -0.2423
     16 C         139.7555  141.1227  169.9280 C.ar    1  UNL1        0.0988
     17 C         138.7713  144.0091  161.8513 C.2     1  UNL1        0.2472
     18 N         139.4313  143.8020  160.5203 N.am    1  UNL1       -0.3252
     19 O         138.2422  145.3624  162.2237 O.2     1  UNL1       -0.2702
     20 H         139.7786  142.9138  160.2759 H       1  UNL1        0.1453
     21 H         139.5172  144.5544  159.8911 H       1  UNL1        0.1453
     22 O         140.1843  144.0968  164.4963 O.3     1  UNL1       -0.4752
     23 C         141.5730  144.2333  163.9457 C.3     1  UNL1        0.2053
     24 C         142.4661  143.0315  163.8571 C.3     1  UNL1        0.0438
     25 C         143.0172  142.9506  161.3194 C.3     1  UNL1        0.0001
     26 C         142.5637  142.2626  162.5729 C.3     1  UNL1        0.0037
     27 C         143.2617  142.5985  165.0528 C.3     1  UNL1        0.0037
     28 C         143.3804  141.1410  165.3869 C.3     1  UNL1        0.0001
@<TRIPOS>BOND
     1    25    26    1
     2    26    24    1
     3    24    27    1
     4    27    28    1
     5    24    23    1
     6    23    22    1
     7    22     1    1
     8     1     2   ar
     9     2    17    1
    10    17    18   am
    11    17    19    2
    12     2     3   ar
    13     3     4   ar
    14     4     5   ar
    15     5     6   ar
    16     6     7   ar
    17     7     8   ar
    18     8    11    1
    19    11    12   ar
    20    12    13   ar
    21    13    14   ar
    22    14    15   ar
    23    15    16   ar
    24     8     9   ar
    25     9    10   ar
    26    10     1   ar
    27    10     5   ar
    28    16    11   ar
    29    18    20    1
    30    18    21    1
@<TRIPOS>MOLECULE
*****
 28 30 0 0 0
SMALL
GASTEIGER

@<TRIPOS>ATOM
      1 C         141.5239  142.5558  162.5402 C.ar    1  UNL1        0.1457
      2 C         142.3911  143.0180  161.4071 C.ar    1  UNL1        0.1061
      3 C         143.8004  143.4580  161.6723 C.ar    1  UNL1        0.1063
      4 N         144.3424  143.4357  163.0708 N.ar    1  UNL1       -0.2435
      5 C         143.4751  142.9735  164.2040 C.ar    1  UNL1        0.0842
      6 C         144.0171  142.9512  165.6025 C.ar    1  UNL1        0.0192
      7 C         143.1498  142.4890  166.7357 C.ar    1  UNL1        0.0016
      8 C         141.7405  142.0490  166.4704 C.ar    1  UNL1        0.0017
      9 C         141.1986  142.0713  165.0719 C.ar    1  UNL1        0.0046
     10 C         142.0658  142.5335  163.9388 C.ar    1  UNL1        0.0518
     11 C         140.8732  141.5868  167.6037 C.ar    1  UNL1        0.0192
     12 C         140.6781  142.4638  168.8048 C.ar    1  UNL1        0.0031
     13 C         139.8108  142.0016  169.9380 C.ar    1  UNL1        0.0207
     14 C         139.1387  140.6623  169.8701 C.ar    1  UNL1        0.0989
     15 N         139.3339  139.7853  168.6689 N.ar    1  UNL1       -0.2423
     16 C         140.2011  140.2475  167.5357 C.ar    1  UNL1        0.0988
     17 C         141.8492  143.0403  160.0085 C.2     1  UNL1        0.2472
     18 N         141.2493  141.7993  159.4168 N.am    1  UNL1       -0.3252
     19 O         141.9071  144.3035  159.2018 O.2     1  UNL1       -0.2702
     20 H         141.2113  140.9702  159.9463 H       1  UNL1        0.1453
     21 H         140.8936  141.8139  158.4989 H       1  UNL1        0.1453
     22 O         140.1146  142.1158  162.2750 O.3     1  UNL1       -0.4752
     23 C         139.0161  143.1331  162.1827 C.3     1  UNL1        0.2053
     24 C         138.9970  144.3035  163.1207 C.3     1  UNL1        0.0438
     25 C         138.6088  144.8922  165.6212 C.3     1  UNL1        0.0001
     26 C         138.1286  144.2708  164.3432 C.3     1  UNL1        0.0037
     27 C         139.8465  145.5067  162.8361 C.3     1  UNL1        0.0037
     28 C         139.7653  146.1830  161.4997 C.3     1  UNL1        0.0001
@<TRIPOS>BOND
     1    25    26    1
     2    26    24    1
     3    24    27    1
     4    27    28    1
     5    24    23    1
     6    23    22    1
     7    22     1    1
     8     1     2   ar
     9     2    17    1
    10    17    18   am
    11    17    19    2
    12     2     3   ar
    13     3     4   ar
    14     4     5   ar
    15     5     6   ar
    16     6     7   ar
    17     7     8   ar
    18     8    11    1
    19    11    12   ar
    20    12    13   ar
    21    13    14   ar
    22    14    15   ar
    23    15    16   ar
    24     8     9   ar
    25     9    10   ar
    26    10     1   ar
    27    10     5   ar
    28    16    11   ar
    29    18    20    1
    30    18    21    1
@<TRIPOS>MOLECULE
*****
 28 30 0 0 0
SMALL
GASTEIGER

@<TRIPOS>ATOM
      1 C         140.8019  140.3635  167.6582 C.ar    1  UNL1        0.1457
      2 C         140.8195  140.0488  169.1247 C.ar    1  UNL1        0.1061
      3 C         141.9292  139.2202  169.7007 C.ar    1  UNL1        0.1063
      4 N         143.0213  138.7061  168.8103 N.ar    1  UNL1       -0.2435
      5 C         143.0038  139.0207  167.3437 C.ar    1  UNL1        0.0842
      6 C         144.0959  138.5067  166.4532 C.ar    1  UNL1        0.0192
      7 C         144.0783  138.8213  164.9867 C.ar    1  UNL1        0.0016
      8 C         142.9686  139.6500  164.4107 C.ar    1  UNL1        0.0017
      9 C         141.8765  140.1640  165.3012 C.ar    1  UNL1        0.0046
     10 C         141.8941  139.8494  166.7677 C.ar    1  UNL1        0.0518
     11 C         142.9510  139.9646  162.9441 C.ar    1  UNL1        0.0192
     12 C         144.1308  140.6370  162.3071 C.ar    1  UNL1        0.0031
     13 C         144.1133  140.9516  160.8405 C.ar    1  UNL1        0.0207
     14 C         142.9158  140.5938  160.0110 C.ar    1  UNL1        0.0989
     15 N         141.7359  139.9214  160.6481 N.ar    1  UNL1       -0.2423
     16 C         141.7535  139.6068  162.1146 C.ar    1  UNL1        0.0988
     17 C         139.7274  140.5629  170.0153 C.2     1  UNL1        0.2472
     18 N         139.6032  142.0347  170.2767 N.am    1  UNL1       -0.3252
     19 O         138.7594  139.6052  170.6443 O.2     1  UNL1       -0.2702
     20 H         140.2385  142.6633  169.8638 H       1  UNL1        0.1453
     21 H         138.8864  142.3721  170.8612 H       1  UNL1        0.1453
     22 O         139.6922  141.1922  167.0822 O.3     1  UNL1       -0.4752
     23 C         138.8585  140.6520  165.9582 C.3     1  UNL1        0.2053
     24 C         138.3893  139.2276  165.9898 C.3     1  UNL1        0.0438
     25 C         139.8627  137.4511  164.7969 C.3     1  UNL1        0.0001
     26 C         138.6455  138.3274  164.8177 C.3     1  UNL1        0.0037
     27 C         137.6641  138.7034  167.1937 C.3     1  UNL1        0.0037
     28 C         137.1647  137.2890  167.2115 C.3     1  UNL1        0.0001
@<TRIPOS>BOND
     1    25    26    1
     2    26    24    1
     3    24    27    1
     4    27    28    1
     5    24    23    1
     6    23    22    1
     7    22     1    1
     8     1     2   ar
     9     2    17    1
    10    17    18   am
    11    17    19    2
    12     2     3   ar
    13     3     4   ar
    14     4     5   ar
    15     5     6   ar
    16     6     7   ar
    17     7     8   ar
    18     8    11    1
    19    11    12   ar
    20    12    13   ar
    21    13    14   ar
    22    14    15   ar
    23    15    16   ar
    24     8     9   ar
    25     9    10   ar
    26    10     1   ar
    27    10     5   ar
    28    16    11   ar
    29    18    20    1
    30    18    21    1
