@<TRIPOS>MOLECULE
*****
 25 29 0 0 0
SMALL
GASTEIGER

@<TRIPOS>ATOM
      1 N         138.4113  139.0323  165.8981 N.3     1  UNL1       -0.2725
      2 C         138.2055  140.2973  165.1187 C.3     1  UNL1        0.0724
      3 C         138.3991  140.3017  163.6313 C.3     1  UNL1        0.0214
      4 C         138.7985  139.0411  162.9233 C.3     1  UNL1        0.0216
      5 C         139.1950  137.8640  162.0822 C.3     1  UNL1        0.0088
      6 C         139.2712  138.3188  160.6548 C.3     1  UNL1        0.0264
      7 C         138.9217  139.7770  160.6137 C.ar    1  UNL1       -0.0261
      8 C         138.8318  140.7560  159.4808 C.ar    1  UNL1       -0.0046
      9 C         138.4498  142.1813  159.7497 C.ar    1  UNL1       -0.0003
     10 C         138.1576  142.6278  161.1517 C.ar    1  UNL1       -0.0003
     11 C         138.2476  141.6488  162.2846 C.ar    1  UNL1       -0.0046
     12 C         138.6296  140.2234  162.0156 C.ar    1  UNL1       -0.0266
     13 C         139.0043  137.7761  163.7026 C.3     1  UNL1        0.0214
     14 C         138.8107  137.7717  165.1900 C.3     1  UNL1        0.0724
     15 C         138.2177  139.0279  167.3856 C.3     1  UNL1        0.0761
     16 C         143.5841  142.4071  168.9772 C.ar    1  UNL1       -0.0001
     17 C         143.1589  142.7582  170.3722 C.ar    1  UNL1        0.0031
     18 C         141.8305  142.2929  170.8908 C.ar    1  UNL1        0.0366
     19 C         140.9273  141.4767  170.0145 C.ar    1  UNL1        0.1345
     20 C         141.3525  141.1256  168.6195 C.ar    1  UNL1        0.0119
     21 C         142.6808  141.5908  168.1008 C.ar    1  UNL1       -0.0013
     22 C         140.4493  140.3094  167.7432 C.3     1  UNL1        0.0345
     23 C         139.1209  139.8441  168.2619 C.3     1  UNL1        0.0641
     24 C         138.6957  140.1952  169.6569 C.3     1  UNL1        0.2070
     25 O         139.5990  141.0115  170.5332 O.3     1  UNL1       -0.4757
@<TRIPOS>BOND
     1    16    17   ar
     2    17    18   ar
     3    18    19   ar
     4    19    20   ar
     5    20    21   ar
     6    20    22    1
     7    22    23    1
     8    23    15    1
     9    15     1    1
    10     1     2    1
    11     2     3    1
    12     3     4    1
    13     4     5    1
    14     5     6    1
    15     6     7    1
    16     7     8   ar
    17     8     9   ar
    18     9    10   ar
    19    10    11   ar
    20    11    12   ar
    21     4    13    1
    22    13    14    1
    23    23    24    1
    24    24    25    1
    25    21    16   ar
    26    14     1    1
    27    25    19    1
    28    12     4    1
    29    12     7   ar
@<TRIPOS>MOLECULE
*****
 25 29 0 0 0
SMALL
GASTEIGER

@<TRIPOS>ATOM
      1 N         139.1851  138.5087  165.0745 N.3     1  UNL1       -0.2725
      2 C         140.4282  139.3253  165.2690 C.3     1  UNL1        0.0724
      3 C         140.6556  140.0484  166.5633 C.3     1  UNL1        0.0214
      4 C         139.6398  139.9550  167.6631 C.3     1  UNL1        0.0216
      5 C         138.7184  139.9550  168.8468 C.3     1  UNL1        0.0088
      6 C         139.3377  140.8052  169.9163 C.3     1  UNL1        0.0264
      7 C         140.6419  141.3306  169.3936 C.ar    1  UNL1       -0.0261
      8 C         141.6835  142.2195  170.0058 C.ar    1  UNL1       -0.0046
      9 C         142.9118  142.5831  169.2255 C.ar    1  UNL1       -0.0003
     10 C         143.0986  142.0576  167.8329 C.ar    1  UNL1       -0.0003
     11 C         142.0570  141.1687  167.2208 C.ar    1  UNL1       -0.0046
     12 C         140.8286  140.8051  168.0011 C.ar    1  UNL1       -0.0266
     13 C         138.3967  139.1384  167.4686 C.3     1  UNL1        0.0214
     14 C         138.1694  138.4153  166.1743 C.3     1  UNL1        0.0724
     15 C         138.9577  137.7855  163.7801 C.3     1  UNL1        0.0761
     16 C         139.6107  139.2164  157.4338 C.ar    1  UNL1       -0.0001
     17 C         138.7461  140.4421  157.4439 C.ar    1  UNL1        0.0031
     18 C         138.0967  140.8913  158.7193 C.ar    1  UNL1        0.0366
     19 C         138.3119  140.1149  159.9845 C.ar    1  UNL1        0.1345
     20 C         139.1765  138.8892  159.9743 C.ar    1  UNL1        0.0119
     21 C         139.8259  138.4399  158.6990 C.ar    1  UNL1       -0.0013
     22 C         139.3918  138.1127  161.2395 C.3     1  UNL1        0.0345
     23 C         138.7424  138.5619  162.5149 C.3     1  UNL1        0.0641
     24 C         137.8778  139.7877  162.5251 C.3     1  UNL1        0.2070
     25 O         137.6626  140.5641  161.2598 O.3     1  UNL1       -0.4757
@<TRIPOS>BOND
     1    16    17   ar
     2    17    18   ar
     3    18    19   ar
     4    19    20   ar
     5    20    21   ar
     6    20    22    1
     7    22    23    1
     8    23    15    1
     9    15     1    1
    10     1     2    1
    11     2     3    1
    12     3     4    1
    13     4     5    1
    14     5     6    1
    15     6     7    1
    16     7     8   ar
    17     8     9   ar
    18     9    10   ar
    19    10    11   ar
    20    11    12   ar
    21     4    13    1
    22    13    14    1
    23    23    24    1
    24    24    25    1
    25    21    16   ar
    26    14     1    1
    27    25    19    1
    28    12     4    1
    29    12     7   ar
@<TRIPOS>MOLECULE
*****
 25 29 0 0 0
SMALL
GASTEIGER

@<TRIPOS>ATOM
      1 N         142.0224  137.1846  157.3910 N.3     1  UNL1       -0.2725
      2 C         142.9751  136.0791  157.7380 C.3     1  UNL1        0.0724
      3 C         143.0906  134.8804  156.8438 C.3     1  UNL1        0.0214
      4 C         142.2534  134.7870  155.6027 C.3     1  UNL1        0.0216
      5 C         141.4853  134.5551  154.3353 C.3     1  UNL1        0.0088
      6 C         141.9145  133.2344  153.7682 C.3     1  UNL1        0.0264
      7 C         142.9479  132.6500  154.6851 C.ar    1  UNL1       -0.0261
      8 C         143.7252  131.3682  154.6342 C.ar    1  UNL1       -0.0046
      9 C         144.7119  131.0458  155.7169 C.ar    1  UNL1       -0.0003
     10 C         144.9214  132.0054  156.8507 C.ar    1  UNL1       -0.0003
     11 C         144.1441  133.2873  156.9017 C.ar    1  UNL1       -0.0046
     12 C         143.1573  133.6096  155.8189 C.ar    1  UNL1       -0.0266
     13 C         141.3008  135.8924  155.2557 C.3     1  UNL1        0.0214
     14 C         141.1853  137.0912  156.1499 C.3     1  UNL1        0.0724
     15 C         141.9069  138.3834  158.2852 C.3     1  UNL1        0.0761
     16 C         141.0637  137.5383  164.7136 C.ar    1  UNL1       -0.0001
     17 C         139.5751  137.7225  164.7176 C.ar    1  UNL1        0.0031
     18 C         138.8506  138.0021  163.4343 C.ar    1  UNL1        0.0366
     19 C         139.6146  138.0974  162.1470 C.ar    1  UNL1        0.1345
     20 C         141.1033  137.9132  162.1430 C.ar    1  UNL1        0.0119
     21 C         141.8278  137.6336  163.4263 C.ar    1  UNL1       -0.0013
     22 C         141.8674  138.0085  160.8558 C.3     1  UNL1        0.0345
     23 C         141.1428  138.2881  159.5724 C.3     1  UNL1        0.0641
     24 C         139.6542  138.4723  159.5764 C.3     1  UNL1        0.2070
     25 O         138.8901  138.3770  160.8637 O.3     1  UNL1       -0.4757
@<TRIPOS>BOND
     1    16    17   ar
     2    17    18   ar
     3    18    19   ar
     4    19    20   ar
     5    20    21   ar
     6    20    22    1
     7    22    23    1
     8    23    15    1
     9    15     1    1
    10     1     2    1
    11     2     3    1
    12     3     4    1
    13     4     5    1
    14     5     6    1
    15     6     7    1
    16     7     8   ar
    17     8     9   ar
    18     9    10   ar
    19    10    11   ar
    20    11    12   ar
    21     4    13    1
    22    13    14    1
    23    23    24    1
    24    24    25    1
    25    21    16   ar
    26    14     1    1
    27    25    19    1
    28    12     4    1
    29    12     7   ar
@<TRIPOS>MOLECULE
*****
 25 29 0 0 0
SMALL
GASTEIGER

@<TRIPOS>ATOM
      1 N         139.7794  144.1543  163.3506 N.3     1  UNL1       -0.2725
      2 C         140.3539  144.1624  164.7361 C.3     1  UNL1        0.0724
      3 C         140.1245  142.9951  165.6499 C.3     1  UNL1        0.0214
      4 C         139.3206  141.8199  165.1780 C.3     1  UNL1        0.0216
      5 C         138.5420  140.5811  164.8476 C.3     1  UNL1        0.0088
      6 C         138.5698  139.6821  166.0480 C.3     1  UNL1        0.0264
      7 C         139.3656  140.3653  167.1204 C.ar    1  UNL1       -0.0261
      8 C         139.7277  139.9550  168.5171 C.ar    1  UNL1       -0.0046
      9 C         140.5537  140.8658  169.3760 C.ar    1  UNL1       -0.0003
     10 C         141.0178  142.1871  168.8384 C.ar    1  UNL1       -0.0003
     11 C         140.6558  142.5974  167.4417 C.ar    1  UNL1       -0.0046
     12 C         139.8297  141.6865  166.5828 C.ar    1  UNL1       -0.0266
     13 C         138.7462  141.8119  163.7925 C.3     1  UNL1        0.0214
     14 C         138.9755  142.9791  162.8787 C.3     1  UNL1        0.0724
     15 C         140.0087  145.3216  162.4367 C.3     1  UNL1        0.0761
     16 C         140.8225  145.9605  155.9808 C.ar    1  UNL1       -0.0001
     17 C         142.0615  145.1210  155.8796 C.ar    1  UNL1        0.0031
     18 C         142.6421  144.4895  157.1102 C.ar    1  UNL1        0.0366
     19 C         141.9837  144.6975  158.4418 C.ar    1  UNL1        0.1345
     20 C         140.7448  145.5370  158.5429 C.ar    1  UNL1        0.0119
     21 C         140.1642  146.1685  157.3125 C.ar    1  UNL1       -0.0013
     22 C         140.0865  145.7451  159.8746 C.3     1  UNL1        0.0345
     23 C         140.6671  145.1136  161.1051 C.3     1  UNL1        0.0641
     24 C         141.9060  144.2740  161.0040 C.3     1  UNL1        0.2070
     25 O         142.5643  144.0660  159.6722 O.3     1  UNL1       -0.4757
@<TRIPOS>BOND
     1    16    17   ar
     2    17    18   ar
     3    18    19   ar
     4    19    20   ar
     5    20    21   ar
     6    20    22    1
     7    22    23    1
     8    23    15    1
     9    15     1    1
    10     1     2    1
    11     2     3    1
    12     3     4    1
    13     4     5    1
    14     5     6    1
    15     6     7    1
    16     7     8   ar
    17     8     9   ar
    18     9    10   ar
    19    10    11   ar
    20    11    12   ar
    21     4    13    1
    22    13    14    1
    23    23    24    1
    24    24    25    1
    25    21    16   ar
    26    14     1    1
    27    25    19    1
    28    12     4    1
    29    12     7   ar
@<TRIPOS>MOLECULE
*****
 25 29 0 0 0
SMALL
GASTEIGER

@<TRIPOS>ATOM
      1 N         138.9656  139.8044  163.9828 N.3     1  UNL1       -0.2725
      2 C         138.4789  140.0902  165.3725 C.3     1  UNL1        0.0724
      3 C         139.4197  139.9753  166.5351 C.3     1  UNL1        0.0214
      4 C         140.8472  139.5746  166.3080 C.3     1  UNL1        0.0216
      5 C         142.2943  139.1864  166.2361 C.3     1  UNL1        0.0088
      6 C         142.8476  139.1996  167.6304 C.3     1  UNL1        0.0264
      7 C         141.7423  139.5960  168.5639 C.ar    1  UNL1       -0.0261
      8 C         141.7019  139.7759  170.0525 C.ar    1  UNL1       -0.0046
      9 C         140.4253  140.1875  170.7238 C.ar    1  UNL1       -0.0003
     10 C         139.1890  140.4192  169.9066 C.ar    1  UNL1       -0.0003
     11 C         139.2294  140.2394  168.4180 C.ar    1  UNL1       -0.0046
     12 C         140.5061  139.8278  167.7466 C.ar    1  UNL1       -0.0266
     13 C         141.3339  139.2888  164.9183 C.3     1  UNL1        0.0214
     14 C         140.3932  139.4036  163.7557 C.3     1  UNL1        0.0724
     15 C         138.0248  139.9192  162.8201 C.3     1  UNL1        0.0761
     16 C         140.3864  145.2149  159.7987 C.ar    1  UNL1       -0.0001
     17 C         140.0795  144.7666  158.4006 C.ar    1  UNL1        0.0031
     18 C         139.4230  143.4384  158.1660 C.ar    1  UNL1        0.0366
     19 C         139.0735  142.5586  159.3295 C.ar    1  UNL1        0.1345
     20 C         139.3804  143.0070  160.7276 C.ar    1  UNL1        0.0119
     21 C         140.0368  144.3351  160.9622 C.ar    1  UNL1       -0.0013
     22 C         139.0309  142.1272  161.8911 C.3     1  UNL1        0.0345
     23 C         138.3744  140.7990  161.6566 C.3     1  UNL1        0.0641
     24 C         138.0675  140.3506  160.2584 C.3     1  UNL1        0.2070
     25 O         138.4170  141.2305  159.0949 O.3     1  UNL1       -0.4757
@<TRIPOS>BOND
     1    16    17   ar
     2    17    18   ar
     3    18    19   ar
     4    19    20   ar
     5    20    21   ar
     6    20    22    1
     7    22    23    1
     8    23    15    1
     9    15     1    1
    10     1     2    1
    11     2     3    1
    12     3     4    1
    13     4     5    1
    14     5     6    1
    15     6     7    1
    16     7     8   ar
    17     8     9   ar
    18     9    10   ar
    19    10    11   ar
    20    11    12   ar
    21     4    13    1
    22    13    14    1
    23    23    24    1
    24    24    25    1
    25    21    16   ar
    26    14     1    1
    27    25    19    1
    28    12     4    1
    29    12     7   ar
@<TRIPOS>MOLECULE
*****
 25 29 0 0 0
SMALL
GASTEIGER

@<TRIPOS>ATOM
      1 N         138.7564  140.0228  164.0255 N.3     1  UNL1       -0.2725
      2 C         138.4304  140.2700  165.4686 C.3     1  UNL1        0.0724
      3 C         139.4853  140.0833  166.5185 C.3     1  UNL1        0.0214
      4 C         140.8662  139.6492  166.1253 C.3     1  UNL1        0.0216
      5 C         142.2836  139.2212  165.8846 C.3     1  UNL1        0.0088
      6 C         142.9824  139.1652  167.2108 C.3     1  UNL1        0.0264
      7 C         141.9968  139.5585  168.2711 C.ar    1  UNL1       -0.0261
      8 C         142.1213  139.6830  169.7607 C.ar    1  UNL1       -0.0046
      9 C         140.9381  140.1065  170.5794 C.ar    1  UNL1       -0.0003
     10 C         139.6302  140.4057  169.9085 C.ar    1  UNL1       -0.0003
     11 C         139.5057  140.2813  168.4189 C.ar    1  UNL1       -0.0046
     12 C         140.6890  139.8577  167.6002 C.ar    1  UNL1       -0.0266
     13 C         141.1922  139.4020  164.6822 C.3     1  UNL1        0.0214
     14 C         140.1373  139.5887  163.6323 C.3     1  UNL1        0.0724
     15 C         137.7015  140.2095  162.9756 C.3     1  UNL1        0.0761
     16 C         139.1040  140.8934  156.6262 C.ar    1  UNL1       -0.0001
     17 C         139.2135  142.3893  156.6343 C.ar    1  UNL1        0.0031
     18 C         138.9987  143.1502  157.9091 C.ar    1  UNL1        0.0366
     19 C         138.6744  142.4150  159.1757 C.ar    1  UNL1        0.1345
     20 C         138.5649  140.9190  159.1676 C.ar    1  UNL1        0.0119
     21 C         138.7797  140.1582  157.8929 C.ar    1  UNL1       -0.0013
     22 C         138.2406  140.1839  160.4342 C.3     1  UNL1        0.0345
     23 C         138.0258  140.9447  161.7090 C.3     1  UNL1        0.0641
     24 C         138.1353  142.4406  161.7171 C.3     1  UNL1        0.2070
     25 O         138.4596  143.1758  160.4504 O.3     1  UNL1       -0.4757
@<TRIPOS>BOND
     1    16    17   ar
     2    17    18   ar
     3    18    19   ar
     4    19    20   ar
     5    20    21   ar
     6    20    22    1
     7    22    23    1
     8    23    15    1
     9    15     1    1
    10     1     2    1
    11     2     3    1
    12     3     4    1
    13     4     5    1
    14     5     6    1
    15     6     7    1
    16     7     8   ar
    17     8     9   ar
    18     9    10   ar
    19    10    11   ar
    20    11    12   ar
    21     4    13    1
    22    13    14    1
    23    23    24    1
    24    24    25    1
    25    21    16   ar
    26    14     1    1
    27    25    19    1
    28    12     4    1
    29    12     7   ar
@<TRIPOS>MOLECULE
*****
 25 29 0 0 0
SMALL
GASTEIGER

@<TRIPOS>ATOM
      1 N         139.7772  140.9247  162.5912 N.3     1  UNL1       -0.2725
      2 C         140.2785  141.6951  163.7766 C.3     1  UNL1        0.0724
      3 C         139.9411  141.2385  165.1649 C.3     1  UNL1        0.0214
      4 C         139.1023  140.0116  165.3679 C.3     1  UNL1        0.0216
      5 C         138.2781  138.8103  165.7251 C.3     1  UNL1        0.0088
      6 C         138.1962  138.7325  167.2210 C.3     1  UNL1        0.0264
      7 C         138.9699  139.8856  167.7882 C.ar    1  UNL1       -0.0261
      8 C         139.2368  140.3180  169.1995 C.ar    1  UNL1       -0.0046
      9 C         140.0637  141.5408  169.4656 C.ar    1  UNL1       -0.0003
     10 C         140.6237  142.3314  168.3204 C.ar    1  UNL1       -0.0003
     11 C         140.3568  141.8991  166.9091 C.ar    1  UNL1       -0.0046
     12 C         139.5299  140.6762  166.6430 C.ar    1  UNL1       -0.0266
     13 C         138.6011  139.2412  164.1825 C.3     1  UNL1        0.0214
     14 C         138.9385  139.6978  162.7942 C.3     1  UNL1        0.0724
     15 C         140.1147  141.3813  161.2027 C.3     1  UNL1        0.0761
     16 C         142.4198  136.8444  157.0974 C.ar    1  UNL1       -0.0001
     17 C         141.1610  136.6797  156.2985 C.ar    1  UNL1        0.0031
     18 C         139.9446  137.4883  156.6403 C.ar    1  UNL1        0.0366
     19 C         139.9871  138.4616  157.7809 C.ar    1  UNL1        0.1345
     20 C         141.2460  138.6262  158.5797 C.ar    1  UNL1        0.0119
     21 C         142.4623  137.8177  158.2380 C.ar    1  UNL1       -0.0013
     22 C         141.2885  139.5994  159.7203 C.3     1  UNL1        0.0345
     23 C         140.0721  140.4080  160.0621 C.3     1  UNL1        0.0641
     24 C         138.8133  140.2434  159.2632 C.3     1  UNL1        0.2070
     25 O         138.7708  139.2701  158.1226 O.3     1  UNL1       -0.4757
@<TRIPOS>BOND
     1    16    17   ar
     2    17    18   ar
     3    18    19   ar
     4    19    20   ar
     5    20    21   ar
     6    20    22    1
     7    22    23    1
     8    23    15    1
     9    15     1    1
    10     1     2    1
    11     2     3    1
    12     3     4    1
    13     4     5    1
    14     5     6    1
    15     6     7    1
    16     7     8   ar
    17     8     9   ar
    18     9    10   ar
    19    10    11   ar
    20    11    12   ar
    21     4    13    1
    22    13    14    1
    23    23    24    1
    24    24    25    1
    25    21    16   ar
    26    14     1    1
    27    25    19    1
    28    12     4    1
    29    12     7   ar
@<TRIPOS>MOLECULE
*****
 25 29 0 0 0
SMALL
GASTEIGER

@<TRIPOS>ATOM
      1 N         143.1891  139.5086  164.2722 N.3     1  UNL1       -0.2725
      2 C         143.3299  140.0545  165.6622 C.3     1  UNL1        0.0724
      3 C         142.1473  140.0711  166.5847 C.3     1  UNL1        0.0214
      4 C         140.8239  139.5419  166.1172 C.3     1  UNL1        0.0216
      5 C         139.4448  139.0495  165.7919 C.3     1  UNL1        0.0088
      6 C         138.5812  139.2571  167.0007 C.3     1  UNL1        0.0264
      7 C         139.4266  139.8778  168.0732 C.ar    1  UNL1       -0.0261
      8 C         139.1134  140.3055  169.4764 C.ar    1  UNL1       -0.0046
      9 C         140.1861  140.9091  170.3335 C.ar    1  UNL1       -0.0003
     10 C         141.5721  141.0852  169.7876 C.ar    1  UNL1       -0.0003
     11 C         141.8853  140.6575  168.3844 C.ar    1  UNL1       -0.0046
     12 C         140.8126  140.0538  167.5272 C.ar    1  UNL1       -0.0266
     13 C         140.6831  138.9960  164.7272 C.3     1  UNL1        0.0214
     14 C         141.8657  138.9794  163.8047 C.3     1  UNL1        0.0724
     15 C         144.3718  139.4920  163.3496 C.3     1  UNL1        0.0761
     16 C         143.3037  140.7996  157.0330 C.ar    1  UNL1       -0.0001
     17 C         143.8045  142.2132  157.0628 C.ar    1  UNL1        0.0031
     18 C         144.3186  142.7999  158.3441 C.ar    1  UNL1        0.0366
     19 C         144.3319  141.9729  159.5955 C.ar    1  UNL1        0.1345
     20 C         143.8311  140.5593  159.5656 C.ar    1  UNL1        0.0119
     21 C         143.3170  139.9726  158.2844 C.ar    1  UNL1       -0.0013
     22 C         143.8444  139.7323  160.8170 C.3     1  UNL1        0.0345
     23 C         144.3585  140.3189  162.0982 C.3     1  UNL1        0.0641
     24 C         144.8593  141.7325  162.1281 C.3     1  UNL1        0.2070
     25 O         144.8460  142.5595  160.8767 O.3     1  UNL1       -0.4757
@<TRIPOS>BOND
     1    16    17   ar
     2    17    18   ar
     3    18    19   ar
     4    19    20   ar
     5    20    21   ar
     6    20    22    1
     7    22    23    1
     8    23    15    1
     9    15     1    1
    10     1     2    1
    11     2     3    1
    12     3     4    1
    13     4     5    1
    14     5     6    1
    15     6     7    1
    16     7     8   ar
    17     8     9   ar
    18     9    10   ar
    19    10    11   ar
    20    11    12   ar
    21     4    13    1
    22    13    14    1
    23    23    24    1
    24    24    25    1
    25    21    16   ar
    26    14     1    1
    27    25    19    1
    28    12     4    1
    29    12     7   ar
@<TRIPOS>MOLECULE
*****
 25 29 0 0 0
SMALL
GASTEIGER

@<TRIPOS>ATOM
      1 N         143.1647  141.3800  164.5843 N.3     1  UNL1       -0.2725
      2 C         143.0915  142.2183  165.8259 C.3     1  UNL1        0.0724
      3 C         142.0603  141.9188  166.8733 C.3     1  UNL1        0.0214
      4 C         141.1025  140.7810  166.6790 C.3     1  UNL1        0.0216
      5 C         140.0832  139.6819  166.6239 C.3     1  UNL1        0.0088
      6 C         139.2602  139.7496  167.8763 C.3     1  UNL1        0.0264
      7 C         139.7710  140.8906  168.7054 C.ar    1  UNL1       -0.0261
      8 C         139.3465  141.4314  170.0385 C.ar    1  UNL1       -0.0046
      9 C         140.0604  142.6097  170.6317 C.ar    1  UNL1       -0.0003
     10 C         141.1990  143.2471  169.8917 C.ar    1  UNL1       -0.0003
     11 C         141.6235  142.7063  168.5586 C.ar    1  UNL1       -0.0046
     12 C         140.9095  141.5280  167.9654 C.ar    1  UNL1       -0.0266
     13 C         141.1757  139.9426  165.4373 C.3     1  UNL1        0.0214
     14 C         142.2068  140.2422  164.3900 C.3     1  UNL1        0.0724
     15 C         144.1959  141.6795  163.5368 C.3     1  UNL1        0.0761
     16 C         140.6887  145.4021  159.4635 C.ar    1  UNL1       -0.0001
     17 C         141.4003  144.9989  158.2061 C.ar    1  UNL1        0.0031
     18 C         142.5288  144.0124  158.2664 C.ar    1  UNL1        0.0366
     19 C         142.9455  143.4292  159.5840 C.ar    1  UNL1        0.1345
     20 C         142.2339  143.8324  160.8413 C.ar    1  UNL1        0.0119
     21 C         141.1056  144.8188  160.7811 C.ar    1  UNL1       -0.0013
     22 C         142.6507  143.2492  162.1589 C.3     1  UNL1        0.0345
     23 C         143.7791  142.2627  162.2192 C.3     1  UNL1        0.0641
     24 C         144.4907  141.8595  160.9618 C.3     1  UNL1        0.2070
     25 O         144.0739  142.4427  159.6442 O.3     1  UNL1       -0.4757
@<TRIPOS>BOND
     1    16    17   ar
     2    17    18   ar
     3    18    19   ar
     4    19    20   ar
     5    20    21   ar
     6    20    22    1
     7    22    23    1
     8    23    15    1
     9    15     1    1
    10     1     2    1
    11     2     3    1
    12     3     4    1
    13     4     5    1
    14     5     6    1
    15     6     7    1
    16     7     8   ar
    17     8     9   ar
    18     9    10   ar
    19    10    11   ar
    20    11    12   ar
    21     4    13    1
    22    13    14    1
    23    23    24    1
    24    24    25    1
    25    21    16   ar
    26    14     1    1
    27    25    19    1
    28    12     4    1
    29    12     7   ar
