@<TRIPOS>MOLECULE
*****
 48 55 0 0 0
SMALL
GASTEIGER

@<TRIPOS>ATOM
      1 C         141.3216  141.5613  161.7735 C.3     1  UNL1        0.0235
      2 C         141.7187  140.1171  161.6908 C.3     1  UNL1        0.0257
      3 C         141.9228  139.3223  162.9464 C.3     1  UNL1        0.0940
      4 N         141.7299  139.9717  164.2848 N.am    1  UNL1       -0.2761
      5 C         141.9340  139.1769  165.5404 C.2     1  UNL1        0.2490
      6 O         142.3311  137.7328  165.4577 O.2     1  UNL1       -0.2699
      7 C         141.3328  141.4158  164.3675 C.3     1  UNL1        0.0940
      8 C         141.1287  142.2106  163.1118 C.3     1  UNL1        0.0257
      9 C         141.7411  139.8262  166.8788 C.ar    1  UNL1        0.0534
     10 C         140.5408  139.4859  167.7114 C.ar    1  UNL1        0.0059
     11 C         140.3479  140.1352  169.0497 C.ar    1  UNL1        0.0200
     12 C         141.3553  141.1248  169.5554 C.ar    1  UNL1        0.1217
     13 C         142.5557  141.4651  168.7228 C.ar    1  UNL1        0.0060
     14 C         142.7486  140.8158  167.3844 C.ar    1  UNL1        0.0021
     15 C         143.5631  142.4547  169.2284 C.3     1  UNL1        0.1142
     16 C         143.3703  143.1040  170.5668 C.2     1  UNL1        0.2453
     17 O         144.3777  144.0936  171.0724 O.2     1  UNL1       -0.2732
     18 N         142.1699  142.7638  171.3995 N.am    1  UNL1       -0.1847
     19 S         141.1624  141.7742  170.8938 S.O2    1  UNL1        0.0753
     20 O         139.9406  140.9053  170.8473 O.2     1  UNL1       -0.1499
     21 O         140.5452  142.1217  172.2160 O.2     1  UNL1       -0.1499
     22 H         142.0433  143.1899  172.2779 H       1  UNL1        0.1765
     23 C         140.9463  142.9470  161.3390 C.ar    1  UNL1       -0.0226
     24 C         141.9599  143.8210  160.6617 C.ar    1  UNL1       -0.0043
     25 C         141.5844  145.2068  160.2273 C.ar    1  UNL1       -0.0003
     26 C         140.1955  145.7185  160.4700 C.ar    1  UNL1       -0.0000
     27 C         139.1819  144.8445  161.1472 C.ar    1  UNL1       -0.0003
     28 C         139.5573  143.4587  161.5817 C.ar    1  UNL1       -0.0043
     29 C         141.3842  141.3932  160.2842 C.3     1  UNL1        0.0215
     30 C         140.3516  140.5647  159.5789 C.3     1  UNL1        0.0723
     31 C         140.3116  140.4250  159.6384 C.3     1  UNL1        0.0893
     32 C         139.0898  141.0981  160.1900 C.3     1  UNL1        0.0386
     33 C         138.0921  140.3079  160.9838 C.3     1  UNL1        0.0594
     34 C         137.4012  139.1752  161.6837 C.3     1  UNL1        0.0174
     35 C         138.2360  137.9418  161.5052 C.3     1  UNL1        0.0174
     36 C         139.4428  138.3122  160.6950 C.3     1  UNL1        0.0594
     37 C         140.5357  138.9618  159.8808 C.3     1  UNL1        0.0386
     38 N         139.3539  139.7745  160.3728 N.3     1  UNL1       -0.2751
     39 C         143.7941  139.9406  159.2304 C.3     1  UNL1        0.0718
     40 C         142.7770  140.9255  158.7349 C.ar    1  UNL1        0.1207
     41 N         143.3892  141.9651  157.8436 N.ar    1  UNL1       -0.2309
     42 C         142.3000  142.8972  157.4024 C.ar    1  UNL1        0.0983
     43 C         142.3126  144.1081  156.5172 C.ar    1  UNL1        0.0206
     44 C         141.0396  144.8555  156.2507 C.ar    1  UNL1        0.0016
     45 C         139.7541  144.3921  156.8694 C.ar    1  UNL1        0.0016
     46 C         139.7415  143.1812  157.7545 C.ar    1  UNL1        0.0188
     47 C         141.0145  142.4338  158.0210 C.ar    1  UNL1        0.0785
     48 N         141.3093  141.2152  158.8446 N.ar    1  UNL1       -0.3167
@<TRIPOS>BOND
     1    39    40    1
     2    40    41   ar
     3    41    42   ar
     4    42    43   ar
     5    43    44   ar
     6    44    45   ar
     7    45    46   ar
     8    46    47   ar
     9    47    48   ar
    10    48    31    1
    11    31    32    1
    12    32    33    1
    13    33    34    1
    14    34    35    1
    15    35    36    1
    16    36    37    1
    17    36    38    1
    18    38    30    1
    19    30    29    1
    20    29     1    1
    21     1    23    1
    22    23    24   ar
    23    24    25   ar
    24    25    26   ar
    25    26    27   ar
    26    27    28   ar
    27     1     2    1
    28     2     3    1
    29     3     4    1
    30     4     5   am
    31     5     6    2
    32     5     9    1
    33     9    10   ar
    34    10    11   ar
    35    11    12   ar
    36    12    13   ar
    37    13    14   ar
    38    13    15    1
    39    15    16    1
    40    16    17    2
    41    16    18   am
    42    18    19    1
    43    19    20    2
    44    19    21    2
    45     4     7    1
    46     7     8    1
    47    48    40   ar
    48    37    31    1
    49     8     1    1
    50    47    42   ar
    51    38    33    1
    52    28    23   ar
    53    14     9   ar
    54    19    12    1
    55    18    22    1
@<TRIPOS>MOLECULE
*****
 48 55 0 0 0
SMALL
GASTEIGER

@<TRIPOS>ATOM
      1 C         140.2215  141.3372  161.6687 C.3     1  UNL1        0.0235
      2 C         139.8033  139.8969  161.6461 C.3     1  UNL1        0.0257
      3 C         139.6778  139.1321  162.9303 C.3     1  UNL1        0.0940
      4 N         139.9705  139.8076  164.2373 N.am    1  UNL1       -0.2761
      5 C         139.8450  139.0427  165.5215 C.2     1  UNL1        0.2490
      6 O         139.4268  137.6024  165.4988 O.2     1  UNL1       -0.2699
      7 C         140.3887  141.2479  164.2599 C.3     1  UNL1        0.0940
      8 C         140.5142  142.0127  162.9756 C.3     1  UNL1        0.0257
      9 C         140.1377  139.7182  166.8284 C.ar    1  UNL1        0.0534
     10 C         139.0952  139.7498  167.9064 C.ar    1  UNL1        0.0059
     11 C         139.3879  140.4252  169.2133 C.ar    1  UNL1        0.0200
     12 C         140.7232  141.0692  169.4422 C.ar    1  UNL1        0.1217
     13 C         141.7657  141.0377  168.3642 C.ar    1  UNL1        0.0060
     14 C         141.4730  140.3622  167.0573 C.ar    1  UNL1        0.0021
     15 C         143.1010  141.6817  168.5931 C.3     1  UNL1        0.1142
     16 C         143.3937  142.3572  169.9000 C.2     1  UNL1        0.2453
     17 O         144.7290  143.0011  170.1288 O.2     1  UNL1       -0.2732
     18 N         142.3512  142.3887  170.9780 N.am    1  UNL1       -0.1847
     19 S         141.0159  141.7447  170.7492 S.O2    1  UNL1        0.0753
     20 O         139.6132  141.2792  171.0050 O.2     1  UNL1       -0.1499
     21 O         140.8215  142.2585  172.1449 O.2     1  UNL1       -0.1499
     22 H         142.5433  142.8320  171.8358 H       1  UNL1        0.1765
     23 C         140.5814  142.7083  161.1784 C.ar    1  UNL1       -0.0226
     24 C         142.0130  143.1562  161.1874 C.ar    1  UNL1       -0.0043
     25 C         142.3728  144.5274  160.6970 C.ar    1  UNL1       -0.0003
     26 C         141.3013  145.4506  160.1977 C.ar    1  UNL1       -0.0000
     27 C         139.8697  145.0028  160.1887 C.ar    1  UNL1       -0.0003
     28 C         139.5098  143.6316  160.6791 C.ar    1  UNL1       -0.0043
     29 C         140.0537  141.1379  160.1915 C.3     1  UNL1        0.0215
     30 C         141.0804  140.3650  159.4177 C.3     1  UNL1        0.0723
     31 C         141.1191  140.2232  159.4727 C.3     1  UNL1        0.0893
     32 C         142.3904  140.8480  159.9661 C.3     1  UNL1        0.0386
     33 C         143.4042  140.0132  160.6910 C.3     1  UNL1        0.0594
     34 C         144.0956  138.8475  161.3337 C.3     1  UNL1        0.0174
     35 C         143.2130  137.6442  161.1825 C.3     1  UNL1        0.0174
     36 C         141.9760  138.0661  160.4464 C.3     1  UNL1        0.0594
     37 C         140.8615  138.7637  159.7042 C.3     1  UNL1        0.0386
     38 N         142.0942  139.5303  160.1426 N.3     1  UNL1       -0.2751
     39 C         137.5896  139.9649  159.3994 C.3     1  UNL1        0.0718
     40 C         138.6181  140.8654  158.7817 C.ar    1  UNL1        0.1207
     41 N         137.9944  141.9202  157.9166 N.ar    1  UNL1       -0.2309
     42 C         139.0960  142.7646  157.3481 C.ar    1  UNL1        0.0983
     43 C         139.0798  143.9499  156.4289 C.ar    1  UNL1        0.0206
     44 C         140.3683  144.6022  156.0235 C.ar    1  UNL1        0.0016
     45 C         141.6730  144.0693  156.5372 C.ar    1  UNL1        0.0016
     46 C         141.6892  142.8840  157.4564 C.ar    1  UNL1        0.0188
     47 C         140.4007  142.2317  157.8618 C.ar    1  UNL1        0.0785
     48 N         140.1053  141.0579  158.7478 N.ar    1  UNL1       -0.3167
@<TRIPOS>BOND
     1    39    40    1
     2    40    41   ar
     3    41    42   ar
     4    42    43   ar
     5    43    44   ar
     6    44    45   ar
     7    45    46   ar
     8    46    47   ar
     9    47    48   ar
    10    48    31    1
    11    31    32    1
    12    32    33    1
    13    33    34    1
    14    34    35    1
    15    35    36    1
    16    36    37    1
    17    36    38    1
    18    38    30    1
    19    30    29    1
    20    29     1    1
    21     1    23    1
    22    23    24   ar
    23    24    25   ar
    24    25    26   ar
    25    26    27   ar
    26    27    28   ar
    27     1     2    1
    28     2     3    1
    29     3     4    1
    30     4     5   am
    31     5     6    2
    32     5     9    1
    33     9    10   ar
    34    10    11   ar
    35    11    12   ar
    36    12    13   ar
    37    13    14   ar
    38    13    15    1
    39    15    16    1
    40    16    17    2
    41    16    18   am
    42    18    19    1
    43    19    20    2
    44    19    21    2
    45     4     7    1
    46     7     8    1
    47    48    40   ar
    48    37    31    1
    49     8     1    1
    50    47    42   ar
    51    38    33    1
    52    28    23   ar
    53    14     9   ar
    54    19    12    1
    55    18    22    1
@<TRIPOS>MOLECULE
*****
 48 55 0 0 0
SMALL
GASTEIGER

@<TRIPOS>ATOM
      1 C         142.7730  139.3379  160.8654 C.3     1  UNL1        0.0235
      2 C         142.6395  140.1297  159.5984 C.3     1  UNL1        0.0257
      3 C         142.6058  139.4260  158.2742 C.3     1  UNL1        0.0940
      4 N         142.7058  137.9303  158.2169 N.am    1  UNL1       -0.2761
      5 C         142.6721  137.2266  156.8927 C.2     1  UNL1        0.2490
      6 O         142.5386  138.0184  155.6257 O.2     1  UNL1       -0.2699
      7 C         142.8393  137.1385  159.4839 C.3     1  UNL1        0.0940
      8 C         142.8729  137.8424  160.8082 C.3     1  UNL1        0.0257
      9 C         142.7720  135.7310  156.8355 C.ar    1  UNL1        0.0534
     10 C         143.7797  135.0136  157.6839 C.ar    1  UNL1        0.0059
     11 C         143.8796  133.5180  157.6266 C.ar    1  UNL1        0.0200
     12 C         142.9718  132.7399  156.7209 C.ar    1  UNL1        0.1217
     13 C         141.9641  133.4573  155.8724 C.ar    1  UNL1        0.0060
     14 C         141.8643  134.9528  155.9297 C.ar    1  UNL1        0.0021
     15 C         141.0564  132.6791  154.9666 C.3     1  UNL1        0.1142
     16 C         141.1562  131.1836  154.9093 C.2     1  UNL1        0.2453
     17 O         140.2485  130.4054  154.0036 O.2     1  UNL1       -0.2732
     18 N         142.1639  130.4661  155.7578 N.am    1  UNL1       -0.1847
     19 S         143.0717  131.2442  156.6636 S.O2    1  UNL1        0.0753
     20 O         144.1434  131.5385  157.6709 O.2     1  UNL1       -0.1499
     21 O         143.5438  129.8509  156.9561 O.2     1  UNL1       -0.1499
     22 H         142.2295  129.4845  155.7202 H       1  UNL1        0.1765
     23 C         142.8854  139.0282  162.3287 C.ar    1  UNL1       -0.0226
     24 C         144.1352  139.3858  163.0772 C.ar    1  UNL1       -0.0043
     25 C         144.2476  139.0760  164.5405 C.ar    1  UNL1       -0.0003
     26 C         143.1102  138.4087  165.2554 C.ar    1  UNL1       -0.0000
     27 C         141.8605  138.0510  164.5070 C.ar    1  UNL1       -0.0003
     28 C         141.7481  138.3608  163.0436 C.ar    1  UNL1       -0.0043
     29 C         142.7121  140.7259  161.4308 C.3     1  UNL1        0.0215
     30 C         141.4171  141.4829  161.4227 C.3     1  UNL1        0.0723
     31 C         141.3299  141.4816  161.2922 C.3     1  UNL1        0.0893
     32 C         140.4645  140.4647  161.9756 C.3     1  UNL1        0.0386
     33 C         139.2696  139.8991  161.2669 C.3     1  UNL1        0.0594
     34 C         138.2287  139.6231  160.2226 C.3     1  UNL1        0.0174
     35 C         138.5381  140.4707  159.0244 C.3     1  UNL1        0.0174
     36 C         139.7702  141.2706  159.3281 C.3     1  UNL1        0.0594
     37 C         141.0004  141.9328  159.9002 C.3     1  UNL1        0.0386
     38 N         140.2222  140.9173  160.7140 N.3     1  UNL1       -0.2751
     39 C         144.3631  142.7526  159.9833 C.3     1  UNL1        0.0718
     40 C         143.7731  142.5643  161.3495 C.ar    1  UNL1        0.1207
     41 N         144.7010  143.0317  162.4314 N.ar    1  UNL1       -0.2309
     42 C         144.0263  142.8035  163.7515 C.ar    1  UNL1        0.0983
     43 C         144.4627  143.0711  165.1614 C.ar    1  UNL1        0.0206
     44 C         143.5541  142.7303  166.3052 C.ar    1  UNL1        0.0016
     45 C         142.2091  142.1218  166.0392 C.ar    1  UNL1        0.0016
     46 C         141.7726  141.8542  164.6293 C.ar    1  UNL1        0.0188
     47 C         142.6813  142.1951  163.4854 C.ar    1  UNL1        0.0785
     48 N         142.5248  142.0472  162.0009 N.ar    1  UNL1       -0.3167
@<TRIPOS>BOND
     1    39    40    1
     2    40    41   ar
     3    41    42   ar
     4    42    43   ar
     5    43    44   ar
     6    44    45   ar
     7    45    46   ar
     8    46    47   ar
     9    47    48   ar
    10    48    31    1
    11    31    32    1
    12    32    33    1
    13    33    34    1
    14    34    35    1
    15    35    36    1
    16    36    37    1
    17    36    38    1
    18    38    30    1
    19    30    29    1
    20    29     1    1
    21     1    23    1
    22    23    24   ar
    23    24    25   ar
    24    25    26   ar
    25    26    27   ar
    26    27    28   ar
    27     1     2    1
    28     2     3    1
    29     3     4    1
    30     4     5   am
    31     5     6    2
    32     5     9    1
    33     9    10   ar
    34    10    11   ar
    35    11    12   ar
    36    12    13   ar
    37    13    14   ar
    38    13    15    1
    39    15    16    1
    40    16    17    2
    41    16    18   am
    42    18    19    1
    43    19    20    2
    44    19    21    2
    45     4     7    1
    46     7     8    1
    47    48    40   ar
    48    37    31    1
    49     8     1    1
    50    47    42   ar
    51    38    33    1
    52    28    23   ar
    53    14     9   ar
    54    19    12    1
    55    18    22    1
@<TRIPOS>MOLECULE
*****
 48 55 0 0 0
SMALL
GASTEIGER

@<TRIPOS>ATOM
      1 C         142.6240  139.6073  160.6999 C.3     1  UNL1        0.0235
      2 C         142.6439  140.4873  159.4854 C.3     1  UNL1        0.0257
      3 C         142.6124  139.8762  158.1159 C.3     1  UNL1        0.0940
      4 N         142.5610  138.3851  157.9609 N.am    1  UNL1       -0.2761
      5 C         142.5295  137.7740  156.5914 C.2     1  UNL1        0.2490
      6 O         142.5494  138.6541  155.3768 O.2     1  UNL1       -0.2699
      7 C         142.5411  137.5051  159.1754 C.3     1  UNL1        0.0940
      8 C         142.5726  138.1162  160.5450 C.3     1  UNL1        0.0257
      9 C         142.4781  136.2829  156.4364 C.ar    1  UNL1        0.0534
     10 C         141.4292  135.6549  155.5674 C.ar    1  UNL1        0.0059
     11 C         141.3778  134.1638  155.4124 C.ar    1  UNL1        0.0200
     12 C         142.3755  133.3008  156.1265 C.ar    1  UNL1        0.1217
     13 C         143.4244  133.9288  156.9955 C.ar    1  UNL1        0.0060
     14 C         143.4757  135.4199  157.1505 C.ar    1  UNL1        0.0021
     15 C         144.4220  133.0658  157.7096 C.3     1  UNL1        0.1142
     16 C         144.3707  131.5747  157.5547 C.2     1  UNL1        0.2453
     17 O         145.3683  130.7116  158.2687 O.2     1  UNL1       -0.2732
     18 N         143.3217  130.9466  156.6856 N.am    1  UNL1       -0.1847
     19 S         142.3241  131.8096  155.9715 S.O2    1  UNL1        0.0753
     20 O         141.1694  132.2022  155.0983 O.2     1  UNL1       -0.1499
     21 O         141.8717  130.4549  155.5133 O.2     1  UNL1       -0.1499
     22 H         143.2880  129.9679  156.5839 H       1  UNL1        0.1765
     23 C         142.6217  139.1954  162.1422 C.ar    1  UNL1       -0.0226
     24 C         143.8535  139.3823  162.9776 C.ar    1  UNL1       -0.0043
     25 C         143.8511  138.9704  164.4199 C.ar    1  UNL1       -0.0003
     26 C         142.6170  138.3717  165.0270 C.ar    1  UNL1       -0.0000
     27 C         141.3852  138.1848  164.1917 C.ar    1  UNL1       -0.0003
     28 C         141.3875  138.5967  162.7493 C.ar    1  UNL1       -0.0043
     29 C         142.6745  140.9553  161.3558 C.3     1  UNL1        0.0215
     30 C         141.4651  141.8426  161.3407 C.3     1  UNL1        0.0723
     31 C         141.3866  141.8627  161.2062 C.3     1  UNL1        0.0893
     32 C         140.3899  140.8725  161.7318 C.3     1  UNL1        0.0386
     33 C         139.1960  140.4989  160.9042 C.3     1  UNL1        0.0594
     34 C         138.2032  140.4302  159.7819 C.3     1  UNL1        0.0174
     35 C         138.6646  141.3577  158.6972 C.3     1  UNL1        0.0174
     36 C         139.9428  141.9998  159.1491 C.3     1  UNL1        0.0594
     37 C         141.1894  142.4792  159.8531 C.3     1  UNL1        0.0386
     38 N         140.2712  141.4689  160.5131 N.3     1  UNL1       -0.2751
     39 C         144.6362  142.8433  160.2026 C.3     1  UNL1        0.0718
     40 C         143.9259  142.6411  161.5082 C.ar    1  UNL1        0.1207
     41 N         144.8156  142.9257  162.6818 N.ar    1  UNL1       -0.2309
     42 C         144.0202  142.6969  163.9328 C.ar    1  UNL1        0.0983
     43 C         144.3752  142.8214  165.3848 C.ar    1  UNL1        0.0206
     44 C         143.3488  142.5198  166.4363 C.ar    1  UNL1        0.0016
     45 C         141.9674  142.0938  166.0359 C.ar    1  UNL1        0.0016
     46 C         141.6124  141.9692  164.5838 C.ar    1  UNL1        0.0188
     47 C         142.6388  142.2708  163.5323 C.ar    1  UNL1        0.0785
     48 N         142.5806  142.2363  162.0338 N.ar    1  UNL1       -0.3167
@<TRIPOS>BOND
     1    39    40    1
     2    40    41   ar
     3    41    42   ar
     4    42    43   ar
     5    43    44   ar
     6    44    45   ar
     7    45    46   ar
     8    46    47   ar
     9    47    48   ar
    10    48    31    1
    11    31    32    1
    12    32    33    1
    13    33    34    1
    14    34    35    1
    15    35    36    1
    16    36    37    1
    17    36    38    1
    18    38    30    1
    19    30    29    1
    20    29     1    1
    21     1    23    1
    22    23    24   ar
    23    24    25   ar
    24    25    26   ar
    25    26    27   ar
    26    27    28   ar
    27     1     2    1
    28     2     3    1
    29     3     4    1
    30     4     5   am
    31     5     6    2
    32     5     9    1
    33     9    10   ar
    34    10    11   ar
    35    11    12   ar
    36    12    13   ar
    37    13    14   ar
    38    13    15    1
    39    15    16    1
    40    16    17    2
    41    16    18   am
    42    18    19    1
    43    19    20    2
    44    19    21    2
    45     4     7    1
    46     7     8    1
    47    48    40   ar
    48    37    31    1
    49     8     1    1
    50    47    42   ar
    51    38    33    1
    52    28    23   ar
    53    14     9   ar
    54    19    12    1
    55    18    22    1
@<TRIPOS>MOLECULE
*****
 48 55 0 0 0
SMALL
GASTEIGER

@<TRIPOS>ATOM
      1 C         140.5262  143.2173  160.8245 C.3     1  UNL1        0.0235
      2 C         139.5067  142.2647  160.2740 C.3     1  UNL1        0.0257
      3 C         138.9587  142.4685  158.8927 C.3     1  UNL1        0.0940
      4 N         139.4302  143.6250  158.0618 N.am    1  UNL1       -0.2761
      5 C         138.8822  143.8287  156.6804 C.2     1  UNL1        0.2490
      6 O         137.8626  142.8761  156.1299 O.2     1  UNL1       -0.2699
      7 C         140.4497  144.5776  158.6123 C.3     1  UNL1        0.0940
      8 C         140.9977  144.3738  159.9937 C.3     1  UNL1        0.0257
      9 C         139.3537  144.9852  155.8495 C.ar    1  UNL1        0.0534
     10 C         140.3628  144.7651  154.7618 C.ar    1  UNL1        0.0059
     11 C         140.8342  145.9215  153.9310 C.ar    1  UNL1        0.0200
     12 C         140.2966  147.2981  154.1879 C.ar    1  UNL1        0.1217
     13 C         139.2875  147.5182  155.2756 C.ar    1  UNL1        0.0060
     14 C         138.8161  146.3618  156.1064 C.ar    1  UNL1        0.0021
     15 C         138.7499  148.8948  155.5325 C.3     1  UNL1        0.1142
     16 C         139.2213  150.0512  154.7017 C.2     1  UNL1        0.2453
     17 O         138.6837  151.4278  154.9586 O.2     1  UNL1       -0.2732
     18 N         140.2305  149.8311  153.6139 N.am    1  UNL1       -0.1847
     19 S         140.7681  148.4546  153.3570 S.O2    1  UNL1        0.0753
     20 O         141.5657  147.3459  152.7367 O.2     1  UNL1       -0.1499
     21 O         141.5166  149.2260  152.3107 O.2     1  UNL1       -0.1499
     22 H         140.5399  150.5902  153.0686 H       1  UNL1        0.1765
     23 C         141.4993  143.8439  161.7786 C.ar    1  UNL1       -0.0226
     24 C         140.9974  144.6275  162.9551 C.ar    1  UNL1       -0.0043
     25 C         141.9706  145.2540  163.9092 C.ar    1  UNL1       -0.0003
     26 C         143.4457  145.0971  163.6869 C.ar    1  UNL1       -0.0000
     27 C         143.9477  144.3135  162.5104 C.ar    1  UNL1       -0.0003
     28 C         142.9744  143.6869  161.5563 C.ar    1  UNL1       -0.0043
     29 C         140.3926  142.2785  161.9867 C.3     1  UNL1        0.0215
     30 C         140.9321  140.8823  161.8888 C.3     1  UNL1        0.0723
     31 C         140.9007  140.7966  161.7610 C.3     1  UNL1        0.0893
     32 C         142.2822  141.1397  161.2879 C.3     1  UNL1        0.0386
     33 C         142.7754  140.6170  159.9713 C.3     1  UNL1        0.0594
     34 C         142.8397  139.9041  158.6532 C.3     1  UNL1        0.0174
     35 C         141.5294  139.2060  158.4393 C.3     1  UNL1        0.0174
     36 C         140.6553  139.4874  159.6254 C.3     1  UNL1        0.0594
     37 C         140.0126  139.9307  160.9176 C.3     1  UNL1        0.0386
     38 N         141.4254  140.3595  160.5722 N.3     1  UNL1       -0.2751
     39 C         137.6157  141.6017  162.8049 C.3     1  UNL1        0.0718
     40 C         138.9818  141.6318  163.4239 C.ar    1  UNL1        0.1207
     41 N         138.9464  142.1270  164.8393 N.ar    1  UNL1       -0.2309
     42 C         140.3501  142.1207  165.3679 C.ar    1  UNL1        0.0983
     43 C         140.9228  142.5049  166.6999 C.ar    1  UNL1        0.0206
     44 C         142.3986  142.3900  166.9431 C.ar    1  UNL1        0.0016
     45 C         143.3016  141.8908  165.8543 C.ar    1  UNL1        0.0016
     46 C         142.7289  141.5066  164.5223 C.ar    1  UNL1        0.0188
     47 C         141.2531  141.6215  164.2791 C.ar    1  UNL1        0.0785
     48 N         140.4074  141.3194  163.0776 N.ar    1  UNL1       -0.3167
@<TRIPOS>BOND
     1    39    40    1
     2    40    41   ar
     3    41    42   ar
     4    42    43   ar
     5    43    44   ar
     6    44    45   ar
     7    45    46   ar
     8    46    47   ar
     9    47    48   ar
    10    48    31    1
    11    31    32    1
    12    32    33    1
    13    33    34    1
    14    34    35    1
    15    35    36    1
    16    36    37    1
    17    36    38    1
    18    38    30    1
    19    30    29    1
    20    29     1    1
    21     1    23    1
    22    23    24   ar
    23    24    25   ar
    24    25    26   ar
    25    26    27   ar
    26    27    28   ar
    27     1     2    1
    28     2     3    1
    29     3     4    1
    30     4     5   am
    31     5     6    2
    32     5     9    1
    33     9    10   ar
    34    10    11   ar
    35    11    12   ar
    36    12    13   ar
    37    13    14   ar
    38    13    15    1
    39    15    16    1
    40    16    17    2
    41    16    18   am
    42    18    19    1
    43    19    20    2
    44    19    21    2
    45     4     7    1
    46     7     8    1
    47    48    40   ar
    48    37    31    1
    49     8     1    1
    50    47    42   ar
    51    38    33    1
    52    28    23   ar
    53    14     9   ar
    54    19    12    1
    55    18    22    1
@<TRIPOS>MOLECULE
*****
 48 55 0 0 0
SMALL
GASTEIGER

@<TRIPOS>ATOM
      1 C         142.0476  139.3087  161.3960 C.3     1  UNL1        0.0235
      2 C         142.9757  140.2741  160.7203 C.3     1  UNL1        0.0257
      3 C         143.4192  140.0253  159.3092 C.3     1  UNL1        0.0940
      4 N         142.9346  138.8111  158.5737 N.am    1  UNL1       -0.2761
      5 C         143.3782  138.5623  157.1625 C.2     1  UNL1        0.2490
      6 O         144.3063  139.5277  156.4868 O.2     1  UNL1       -0.2699
      7 C         142.0065  137.8457  159.2494 C.3     1  UNL1        0.0940
      8 C         141.5630  138.0945  160.6606 C.3     1  UNL1        0.0257
      9 C         142.8936  137.3481  156.4270 C.ar    1  UNL1        0.0534
     10 C         142.1425  137.5022  155.1378 C.ar    1  UNL1        0.0059
     11 C         141.6580  136.2880  154.4024 C.ar    1  UNL1        0.0200
     12 C         141.9245  134.9197  154.9562 C.ar    1  UNL1        0.1217
     13 C         142.6756  134.7655  156.2454 C.ar    1  UNL1        0.0060
     14 C         143.1601  135.9797  156.9808 C.ar    1  UNL1        0.0021
     15 C         142.9421  133.3972  156.7991 C.3     1  UNL1        0.1142
     16 C         142.4576  132.1830  156.0637 C.2     1  UNL1        0.2453
     17 O         142.7241  130.8147  156.6175 O.2     1  UNL1       -0.2732
     18 N         141.7064  132.3371  154.7744 N.am    1  UNL1       -0.1847
     19 S         141.4399  133.7054  154.2207 S.O2    1  UNL1        0.0753
     20 O         140.9455  134.7819  153.3005 O.2     1  UNL1       -0.1499
     21 O         140.7836  132.8651  153.1657 O.2     1  UNL1       -0.1499
     22 H         141.3884  131.5402  154.2917 H       1  UNL1        0.1765
     23 C         141.1836  138.6904  162.4548 C.ar    1  UNL1       -0.0226
     24 C         139.6899  138.7338  162.3238 C.ar    1  UNL1       -0.0043
     25 C         138.8259  138.1155  163.3827 C.ar    1  UNL1       -0.0003
     26 C         139.4555  137.4537  164.5725 C.ar    1  UNL1       -0.0000
     27 C         140.9491  137.4103  164.7036 C.ar    1  UNL1       -0.0003
     28 C         141.8131  138.0286  163.6447 C.ar    1  UNL1       -0.0043
     29 C         142.2321  140.3081  162.4992 C.3     1  UNL1        0.0215
     30 C         141.6049  141.6666  162.3931 C.3     1  UNL1        0.0723
     31 C         141.6225  141.7477  162.2598 C.3     1  UNL1        0.0893
     32 C         140.2253  141.3269  161.9121 C.3     1  UNL1        0.0386
     33 C         139.6089  141.7694  160.6181 C.3     1  UNL1        0.0594
     34 C         139.4112  142.4193  159.2808 C.3     1  UNL1        0.0174
     35 C         140.6686  143.1606  158.9352 C.3     1  UNL1        0.0174
     36 C         141.6434  142.9689  160.0590 C.3     1  UNL1        0.0594
     37 C         142.4032  142.6109  161.3136 C.3     1  UNL1        0.0386
     38 N         140.9885  142.1091  161.0991 N.3     1  UNL1       -0.2751
     39 C         145.0129  141.1436  163.0778 C.3     1  UNL1        0.0718
     40 C         143.7004  141.0754  163.8010 C.ar    1  UNL1        0.1207
     41 N         143.8668  140.6431  165.2276 N.ar    1  UNL1       -0.2309
     42 C         142.5082  140.6057  165.8621 C.ar    1  UNL1        0.0983
     43 C         142.0571  140.2518  167.2483 C.ar    1  UNL1        0.0206
     44 C         140.5999  140.3073  167.5998 C.ar    1  UNL1        0.0016
     45 C         139.5938  140.7165  166.5653 C.ar    1  UNL1        0.0016
     46 C         140.0448  141.0704  165.1792 C.ar    1  UNL1        0.0188
     47 C         141.5020  141.0149  164.8276 C.ar    1  UNL1        0.0785
     48 N         142.2389  141.3053  163.5537 N.ar    1  UNL1       -0.3167
@<TRIPOS>BOND
     1    39    40    1
     2    40    41   ar
     3    41    42   ar
     4    42    43   ar
     5    43    44   ar
     6    44    45   ar
     7    45    46   ar
     8    46    47   ar
     9    47    48   ar
    10    48    31    1
    11    31    32    1
    12    32    33    1
    13    33    34    1
    14    34    35    1
    15    35    36    1
    16    36    37    1
    17    36    38    1
    18    38    30    1
    19    30    29    1
    20    29     1    1
    21     1    23    1
    22    23    24   ar
    23    24    25   ar
    24    25    26   ar
    25    26    27   ar
    26    27    28   ar
    27     1     2    1
    28     2     3    1
    29     3     4    1
    30     4     5   am
    31     5     6    2
    32     5     9    1
    33     9    10   ar
    34    10    11   ar
    35    11    12   ar
    36    12    13   ar
    37    13    14   ar
    38    13    15    1
    39    15    16    1
    40    16    17    2
    41    16    18   am
    42    18    19    1
    43    19    20    2
    44    19    21    2
    45     4     7    1
    46     7     8    1
    47    48    40   ar
    48    37    31    1
    49     8     1    1
    50    47    42   ar
    51    38    33    1
    52    28    23   ar
    53    14     9   ar
    54    19    12    1
    55    18    22    1
@<TRIPOS>MOLECULE
*****
 48 55 0 0 0
SMALL
GASTEIGER

@<TRIPOS>ATOM
      1 C         141.7408  140.0237  163.3944 C.3     1  UNL1        0.0235
      2 C         143.1610  140.1726  162.9352 C.3     1  UNL1        0.0257
      3 C         143.5002  140.0133  161.4828 C.3     1  UNL1        0.0940
      4 N         142.4192  139.7051  160.4895 N.am    1  UNL1       -0.2761
      5 C         142.7584  139.5458  159.0371 C.2     1  UNL1        0.2490
      6 O         144.1786  139.6946  158.5779 O.2     1  UNL1       -0.2699
      7 C         140.9990  139.5562  160.9488 C.3     1  UNL1        0.0940
      8 C         140.6598  139.7156  162.4013 C.3     1  UNL1        0.0257
      9 C         141.6774  139.2376  158.0439 C.ar    1  UNL1        0.0534
     10 C         141.1404  137.8418  157.9286 C.ar    1  UNL1        0.0059
     11 C         140.0595  137.5337  156.9354 C.ar    1  UNL1        0.0200
     12 C         139.5154  138.6214  156.0574 C.ar    1  UNL1        0.1217
     13 C         140.0523  140.0172  156.1727 C.ar    1  UNL1        0.0060
     14 C         141.1333  140.3253  157.1659 C.ar    1  UNL1        0.0021
     15 C         139.5083  141.1050  155.2947 C.3     1  UNL1        0.1142
     16 C         138.4273  140.7969  154.3015 C.2     1  UNL1        0.2453
     17 O         137.8832  141.8846  153.4235 O.2     1  UNL1       -0.2732
     18 N         137.8903  139.4010  154.1862 N.am    1  UNL1       -0.1847
     19 S         138.4344  138.3132  155.0642 S.O2    1  UNL1        0.0753
     20 O         138.6262  136.9547  155.6703 O.2     1  UNL1       -0.1499
     21 O         137.4200  137.5333  154.2814 O.2     1  UNL1       -0.1499
     22 H         137.1808  139.1987  153.5343 H       1  UNL1        0.1765
     23 C         140.5528  139.9762  164.3089 C.ar    1  UNL1       -0.0226
     24 C         139.5706  141.1098  164.3220 C.ar    1  UNL1       -0.0043
     25 C         138.3826  141.0622  165.2365 C.ar    1  UNL1       -0.0003
     26 C         138.1767  139.8810  166.1378 C.ar    1  UNL1       -0.0000
     27 C         139.1588  138.7473  166.1247 C.ar    1  UNL1       -0.0003
     28 C         140.3469  138.7949  165.2102 C.ar    1  UNL1       -0.0043
     29 C         142.4093  140.3154  164.7052 C.3     1  UNL1        0.0215
     30 C         142.9350  141.6912  164.9892 C.3     1  UNL1        0.0723
     31 C         143.0308  141.7587  164.8847 C.3     1  UNL1        0.0893
     32 C         141.8430  142.5526  164.4275 C.3     1  UNL1        0.0386
     33 C         141.9884  143.5449  163.3121 C.3     1  UNL1        0.0594
     34 C         142.5765  144.3824  162.2154 C.3     1  UNL1        0.0174
     35 C         144.0320  144.0388  162.0993 C.3     1  UNL1        0.0174
     36 C         144.3434  142.9888  163.1243 C.3     1  UNL1        0.0594
     37 C         144.3639  141.9572  164.2265 C.3     1  UNL1        0.0386
     38 N         143.0805  142.6836  163.8738 N.3     1  UNL1       -0.2751
     39 C         144.6322  138.6416  165.3826 C.3     1  UNL1        0.0718
     40 C         143.6158  139.4619  166.1204 C.ar    1  UNL1        0.1207
     41 N         143.1658  138.7936  167.3857 N.ar    1  UNL1       -0.2309
     42 C         142.1572  139.6851  168.0474 C.ar    1  UNL1        0.0983
     43 C         141.3742  139.5442  169.3190 C.ar    1  UNL1        0.0206
     44 C         140.4179  140.6226  169.7343 C.ar    1  UNL1        0.0016
     45 C         140.2445  141.8419  168.8780 C.ar    1  UNL1        0.0016
     46 C         141.0275  141.9828  167.6063 C.ar    1  UNL1        0.0188
     47 C         141.9838  140.9044  167.1911 C.ar    1  UNL1        0.0785
     48 N         142.8853  140.7664  166.0001 N.ar    1  UNL1       -0.3167
@<TRIPOS>BOND
     1    39    40    1
     2    40    41   ar
     3    41    42   ar
     4    42    43   ar
     5    43    44   ar
     6    44    45   ar
     7    45    46   ar
     8    46    47   ar
     9    47    48   ar
    10    48    31    1
    11    31    32    1
    12    32    33    1
    13    33    34    1
    14    34    35    1
    15    35    36    1
    16    36    37    1
    17    36    38    1
    18    38    30    1
    19    30    29    1
    20    29     1    1
    21     1    23    1
    22    23    24   ar
    23    24    25   ar
    24    25    26   ar
    25    26    27   ar
    26    27    28   ar
    27     1     2    1
    28     2     3    1
    29     3     4    1
    30     4     5   am
    31     5     6    2
    32     5     9    1
    33     9    10   ar
    34    10    11   ar
    35    11    12   ar
    36    12    13   ar
    37    13    14   ar
    38    13    15    1
    39    15    16    1
    40    16    17    2
    41    16    18   am
    42    18    19    1
    43    19    20    2
    44    19    21    2
    45     4     7    1
    46     7     8    1
    47    48    40   ar
    48    37    31    1
    49     8     1    1
    50    47    42   ar
    51    38    33    1
    52    28    23   ar
    53    14     9   ar
    54    19    12    1
    55    18    22    1
@<TRIPOS>MOLECULE
*****
 48 55 0 0 0
SMALL
GASTEIGER

@<TRIPOS>ATOM
      1 C         140.8365  141.1630  162.6161 C.3     1  UNL1        0.0235
      2 C         141.7461  142.2105  162.0455 C.3     1  UNL1        0.0257
      3 C         141.7304  142.4960  160.5730 C.3     1  UNL1        0.0940
      4 N         140.8051  141.7340  159.6711 N.am    1  UNL1       -0.2761
      5 C         140.7895  142.0195  158.1987 C.2     1  UNL1        0.2490
      6 O         141.6990  143.0669  157.6280 O.2     1  UNL1       -0.2699
      7 C         139.8956  140.6866  160.2417 C.3     1  UNL1        0.0940
      8 C         139.9113  140.4011  161.7143 C.3     1  UNL1        0.0257
      9 C         139.8642  141.2576  157.2967 C.ar    1  UNL1        0.0534
     10 C         140.3660  140.0593  156.5468 C.ar    1  UNL1        0.0059
     11 C         139.4408  139.2974  155.6450 C.ar    1  UNL1        0.0200
     12 C         138.0137  139.7338  155.4930 C.ar    1  UNL1        0.1217
     13 C         137.5119  140.9320  156.2429 C.ar    1  UNL1        0.0060
     14 C         138.4372  141.6939  157.1447 C.ar    1  UNL1        0.0021
     15 C         136.0848  141.3684  156.0909 C.3     1  UNL1        0.1142
     16 C         135.1596  140.6065  155.1890 C.2     1  UNL1        0.2453
     17 O         133.7325  141.0429  155.0370 O.2     1  UNL1       -0.2732
     18 N         135.6614  139.4082  154.4391 N.am    1  UNL1       -0.1847
     19 S         137.0885  138.9718  154.5911 S.O2    1  UNL1        0.0753
     20 O         138.3458  138.1748  154.4077 O.2     1  UNL1       -0.1499
     21 O         136.5999  137.9331  153.6255 O.2     1  UNL1       -0.1499
     22 H         135.0541  138.9082  153.8471 H       1  UNL1        0.1765
     23 C         140.1677  140.2729  163.6212 C.ar    1  UNL1       -0.0226
     24 C         138.7689  140.5709  164.0736 C.ar    1  UNL1       -0.0043
     25 C         138.1000  139.6807  165.0786 C.ar    1  UNL1       -0.0003
     26 C         138.8299  138.4924  165.6313 C.ar    1  UNL1       -0.0000
     27 C         140.2286  138.1944  165.1789 C.ar    1  UNL1       -0.0003
     28 C         140.8975  139.0847  164.1738 C.ar    1  UNL1       -0.0043
     29 C         141.5295  141.6158  163.8670 C.3     1  UNL1        0.0215
     30 C         141.2392  142.9732  164.4358 C.3     1  UNL1        0.0723
     31 C         141.2469  143.0993  164.3426 C.3     1  UNL1        0.0893
     32 C         139.7503  143.0341  164.2642 C.3     1  UNL1        0.0386
     33 C         138.9974  144.0435  163.4492 C.3     1  UNL1        0.0594
     34 C         138.6809  145.2067  162.5566 C.3     1  UNL1        0.0174
     35 C         139.9742  145.8647  162.1766 C.3     1  UNL1        0.0174
     36 C         141.0900  145.1081  162.8343 C.3     1  UNL1        0.0594
     37 C         141.9905  144.1737  163.6060 C.3     1  UNL1        0.0386
     38 N         140.4863  143.9825  163.6208 N.3     1  UNL1       -0.2751
     39 C         144.4373  141.6627  163.8070 C.3     1  UNL1        0.0718
     40 C         143.3592  141.5395  164.8428 C.ar    1  UNL1        0.1207
     41 N         143.7252  140.5632  165.9212 N.ar    1  UNL1       -0.2309
     42 C         142.5920  140.5102  166.9025 C.ar    1  UNL1        0.0983
     43 C         142.3933  139.7246  168.1648 C.ar    1  UNL1        0.0206
     44 C         141.1282  139.8827  168.9552 C.ar    1  UNL1        0.0016
     45 C         140.0619  140.8263  168.4833 C.ar    1  UNL1        0.0016
     46 C         140.2606  141.6118  167.2210 C.ar    1  UNL1        0.0188
     47 C         141.5257  141.4537  166.4306 C.ar    1  UNL1        0.0785
     48 N         141.9999  142.0899  165.1577 N.ar    1  UNL1       -0.3167
@<TRIPOS>BOND
     1    39    40    1
     2    40    41   ar
     3    41    42   ar
     4    42    43   ar
     5    43    44   ar
     6    44    45   ar
     7    45    46   ar
     8    46    47   ar
     9    47    48   ar
    10    48    31    1
    11    31    32    1
    12    32    33    1
    13    33    34    1
    14    34    35    1
    15    35    36    1
    16    36    37    1
    17    36    38    1
    18    38    30    1
    19    30    29    1
    20    29     1    1
    21     1    23    1
    22    23    24   ar
    23    24    25   ar
    24    25    26   ar
    25    26    27   ar
    26    27    28   ar
    27     1     2    1
    28     2     3    1
    29     3     4    1
    30     4     5   am
    31     5     6    2
    32     5     9    1
    33     9    10   ar
    34    10    11   ar
    35    11    12   ar
    36    12    13   ar
    37    13    14   ar
    38    13    15    1
    39    15    16    1
    40    16    17    2
    41    16    18   am
    42    18    19    1
    43    19    20    2
    44    19    21    2
    45     4     7    1
    46     7     8    1
    47    48    40   ar
    48    37    31    1
    49     8     1    1
    50    47    42   ar
    51    38    33    1
    52    28    23   ar
    53    14     9   ar
    54    19    12    1
    55    18    22    1
@<TRIPOS>MOLECULE
*****
 48 55 0 0 0
SMALL
GASTEIGER

@<TRIPOS>ATOM
      1 C         139.9791  140.5934  162.6216 C.3     1  UNL1        0.0235
      2 C         140.1515  139.1663  162.1929 C.3     1  UNL1        0.0257
      3 C         139.8972  138.7755  160.7673 C.3     1  UNL1        0.0940
      4 N         139.4705  139.8118  159.7702 N.am    1  UNL1       -0.2761
      5 C         139.2162  139.4209  158.3445 C.2     1  UNL1        0.2490
      6 O         139.3885  137.9939  157.9159 O.2     1  UNL1       -0.2699
      7 C         139.2981  141.2388  160.1988 C.3     1  UNL1        0.0940
      8 C         139.5525  141.6296  161.6246 C.3     1  UNL1        0.0257
      9 C         138.7894  140.4572  157.3474 C.ar    1  UNL1        0.0534
     10 C         137.3308  140.7149  157.1112 C.ar    1  UNL1        0.0059
     11 C         136.9041  141.7512  156.1142 C.ar    1  UNL1        0.0200
     12 C         137.9362  142.5297  155.3534 C.ar    1  UNL1        0.1217
     13 C         139.3948  142.2720  155.5896 C.ar    1  UNL1        0.0060
     14 C         139.8215  141.2358  156.5866 C.ar    1  UNL1        0.0021
     15 C         140.4268  143.0506  154.8288 C.3     1  UNL1        0.1142
     16 C         140.0002  144.0868  153.8318 C.2     1  UNL1        0.2453
     17 O         141.0322  144.8653  153.0710 O.2     1  UNL1       -0.2732
     18 N         138.5414  144.3445  153.5955 N.am    1  UNL1       -0.1847
     19 S         137.5094  143.5660  154.3563 S.O2    1  UNL1        0.0753
     20 O         136.1674  143.0899  154.8276 O.2     1  UNL1       -0.1499
     21 O         136.6167  144.4369  153.5229 O.2     1  UNL1       -0.1499
     22 H         138.2614  145.0247  152.9411 H       1  UNL1        0.1765
     23 C         139.9516  141.8069  163.5028 C.ar    1  UNL1       -0.0226
     24 C         138.8273  142.0014  164.4765 C.ar    1  UNL1       -0.0043
     25 C         138.7999  143.2150  165.3577 C.ar    1  UNL1       -0.0003
     26 C         139.8967  144.2341  165.2651 C.ar    1  UNL1       -0.0000
     27 C         141.0209  144.0396  164.2914 C.ar    1  UNL1       -0.0003
     28 C         141.0484  142.8260  163.4102 C.ar    1  UNL1       -0.0043
     29 C         140.3963  139.9785  163.9246 C.3     1  UNL1        0.0215
     30 C         141.8072  139.5052  164.1130 C.3     1  UNL1        0.0723
     31 C         141.8705  139.4097  164.0056 C.3     1  UNL1        0.0893
     32 C         142.5790  140.6163  163.4650 C.3     1  UNL1        0.0386
     33 C         143.4898  140.4832  162.2807 C.3     1  UNL1        0.0594
     34 C         144.2657  139.9024  161.1359 C.3     1  UNL1        0.0174
     35 C         143.9735  138.4324  161.0763 C.3     1  UNL1        0.0174
     36 C         143.0169  138.1046  162.1842 C.3     1  UNL1        0.0594
     37 C         142.0728  138.0701  163.3619 C.3     1  UNL1        0.0386
     38 N         142.7180  139.3721  162.9286 N.3     1  UNL1       -0.2751
     39 C         138.8902  137.6701  164.7931 C.3     1  UNL1        0.0718
     40 C         139.7089  138.7515  165.4336 C.ar    1  UNL1        0.1207
     41 N         139.1159  139.2102  166.7328 N.ar    1  UNL1       -0.2309
     42 C         140.0002  140.2850  167.2922 C.ar    1  UNL1        0.0983
     43 C         139.9150  141.1030  168.5466 C.ar    1  UNL1        0.0206
     44 C         140.9695  142.1267  168.8474 C.ar    1  UNL1        0.0016
     45 C         142.1090  142.3323  167.8939 C.ar    1  UNL1        0.0016
     46 C         142.1942  141.5142  166.6395 C.ar    1  UNL1        0.0188
     47 C         141.1397  140.4906  166.3387 C.ar    1  UNL1        0.0785
     48 N         140.9597  139.5428  165.1900 N.ar    1  UNL1       -0.3167
@<TRIPOS>BOND
     1    39    40    1
     2    40    41   ar
     3    41    42   ar
     4    42    43   ar
     5    43    44   ar
     6    44    45   ar
     7    45    46   ar
     8    46    47   ar
     9    47    48   ar
    10    48    31    1
    11    31    32    1
    12    32    33    1
    13    33    34    1
    14    34    35    1
    15    35    36    1
    16    36    37    1
    17    36    38    1
    18    38    30    1
    19    30    29    1
    20    29     1    1
    21     1    23    1
    22    23    24   ar
    23    24    25   ar
    24    25    26   ar
    25    26    27   ar
    26    27    28   ar
    27     1     2    1
    28     2     3    1
    29     3     4    1
    30     4     5   am
    31     5     6    2
    32     5     9    1
    33     9    10   ar
    34    10    11   ar
    35    11    12   ar
    36    12    13   ar
    37    13    14   ar
    38    13    15    1
    39    15    16    1
    40    16    17    2
    41    16    18   am
    42    18    19    1
    43    19    20    2
    44    19    21    2
    45     4     7    1
    46     7     8    1
    47    48    40   ar
    48    37    31    1
    49     8     1    1
    50    47    42   ar
    51    38    33    1
    52    28    23   ar
    53    14     9   ar
    54    19    12    1
    55    18    22    1
