@<TRIPOS>MOLECULE
*****
 34 37 0 0 0
SMALL
GASTEIGER

@<TRIPOS>ATOM
      1 N         140.1183  138.7037  160.0568 N.3     1  UNL1       -0.2619
      2 C         141.3910  139.0547  160.7688 C.3     1  UNL1        0.0943
      3 C         141.5057  138.8411  162.2490 C.3     1  UNL1        0.1107
      4 N         140.3476  138.2765  163.0173 N.am    1  UNL1       -0.2767
      5 C         140.4624  138.0629  164.4976 C.2     1  UNL1        0.2264
      6 O         139.3043  137.4982  165.2658 O.2     1  UNL1       -0.2748
      7 C         139.0750  137.9255  162.3052 C.3     1  UNL1        0.1107
      8 C         138.9603  138.1391  160.8250 C.3     1  UNL1        0.0943
      9 C         140.0036  138.9174  158.5764 C.3     1  UNL1        0.1588
     10 C         142.4011  136.6907  156.4885 C.ar    1  UNL1        0.1969
     11 C         141.0817  136.3760  155.8480 C.ar    1  UNL1        0.2068
     12 O         140.0230  137.1719  156.5522 O.2     1  UNL1       -0.4336
     13 C         140.6881  137.9784  157.6279 C.ar    1  UNL1        0.2224
     14 N         142.1578  137.6810  157.5885 N.ar    1  UNL1       -0.2042
     15 C         143.7303  136.1160  156.0976 C.2     1  UNL1        0.3625
     16 O         144.8040  137.0115  155.5541 O.2     1  UNL1       -0.2431
     17 C         143.5971  133.9446  157.5178 C.3     1  UNL1        0.2560
     18 O         143.9859  134.6459  156.2501 O.3     1  UNL1       -0.4402
     19 C         141.7351  138.4138  165.2096 C.3     1  UNL1        0.0940
     20 C         141.8511  139.7198  165.9384 C.3     1  UNL1        0.0536
     21 C         141.4544  139.8108  167.3821 C.ar    1  UNL1       -0.0178
     22 C         142.4697  139.5555  168.4564 C.ar    1  UNL1       -0.0016
     23 C         142.0730  139.6465  169.9001 C.ar    1  UNL1        0.0293
     24 C         140.6610  139.9928  170.2696 C.ar    1  UNL1        0.1401
     25 F         140.2643  140.0837  171.7133 F       1  UNL1       -0.2042
     26 C         139.6458  140.2480  169.1953 C.ar    1  UNL1        0.0293
     27 C         140.0425  140.1570  167.7516 C.ar    1  UNL1       -0.0016
     28 C         142.3639  140.9347  165.2235 C.ar    1  UNL1       -0.0179
     29 C         141.4070  141.9956  164.7666 C.ar    1  UNL1       -0.0034
     30 C         141.9198  143.2105  164.0517 C.ar    1  UNL1        0.0064
     31 C         143.3893  143.3645  163.7937 C.ar    1  UNL1        0.0345
     32 BR        143.9021  144.5794  163.0787 Br      1  UNL1       -0.0490
     33 C         144.3463  142.3035  164.2506 C.ar    1  UNL1        0.0064
     34 C         143.8335  141.0886  164.9655 C.ar    1  UNL1       -0.0034
@<TRIPOS>BOND
     1    17    18    1
     2    18    15    1
     3    15    16    2
     4    15    10    1
     5    10    11   ar
     6    11    12   ar
     7    12    13   ar
     8    13     9    1
     9     9     1    1
    10     1     2    1
    11     2     3    1
    12     3     4    1
    13     4     5   am
    14     5     6    2
    15     5    19    1
    16    19    20    1
    17    20    21    1
    18    21    22   ar
    19    22    23   ar
    20    23    24   ar
    21    24    25    1
    22    24    26   ar
    23    26    27   ar
    24    20    28    1
    25    28    29   ar
    26    29    30   ar
    27    30    31   ar
    28    31    32    1
    29    31    33   ar
    30    33    34   ar
    31     4     7    1
    32     7     8    1
    33    13    14   ar
    34    14    10   ar
    35     8     1    1
    36    27    21   ar
    37    34    28   ar
@<TRIPOS>MOLECULE
*****
 34 37 0 0 0
SMALL
GASTEIGER

@<TRIPOS>ATOM
      1 N         142.5982  139.3639  165.4494 N.3     1  UNL1       -0.2619
      2 C         143.0762  140.6382  164.8188 C.3     1  UNL1        0.0943
      3 C         142.5314  141.0671  163.4887 C.3     1  UNL1        0.1107
      4 N         141.5086  140.2217  162.7892 N.am    1  UNL1       -0.2767
      5 C         140.9638  140.6507  161.4591 C.2     1  UNL1        0.2264
      6 O         139.9411  139.8053  160.7596 O.2     1  UNL1       -0.2748
      7 C         141.0307  138.9474  163.4198 C.3     1  UNL1        0.1107
      8 C         141.5755  138.5185  164.7499 C.3     1  UNL1        0.0943
      9 C         143.1430  138.9350  166.7796 C.3     1  UNL1        0.1588
     10 C         140.7723  140.1848  169.5872 C.ar    1  UNL1        0.1969
     11 C         141.9657  139.7526  170.3866 C.ar    1  UNL1        0.2068
     12 O         142.9990  139.2318  169.4321 O.2     1  UNL1       -0.4336
     13 C         142.4443  139.3421  168.0428 C.ar    1  UNL1        0.2224
     14 N         141.0681  139.9312  168.1387 N.ar    1  UNL1       -0.2042
     15 C         139.5055  140.7683  170.1394 C.2     1  UNL1        0.3625
     16 O         138.3032  139.8945  170.3418 O.2     1  UNL1       -0.2431
     17 C         140.2856  143.2143  169.7415 C.3     1  UNL1        0.2560
     18 O         139.4410  142.2255  170.4891 O.3     1  UNL1       -0.4402
     19 C         141.4418  141.9250  160.8285 C.3     1  UNL1        0.0940
     20 C         140.5376  143.1207  160.7754 C.3     1  UNL1        0.0536
     21 C         139.9259  143.6550  162.0365 C.ar    1  UNL1       -0.0178
     22 C         138.4417  143.5805  162.2402 C.ar    1  UNL1       -0.0016
     23 C         137.8300  144.1147  163.5013 C.ar    1  UNL1        0.0293
     24 C         138.7025  144.7235  164.5588 C.ar    1  UNL1        0.1401
     25 F         138.0908  145.2577  165.8198 F       1  UNL1       -0.2042
     26 C         140.1868  144.7980  164.3551 C.ar    1  UNL1        0.0293
     27 C         140.7985  144.2637  163.0939 C.ar    1  UNL1       -0.0016
     28 C         140.2453  143.7822  159.4613 C.ar    1  UNL1       -0.0179
     29 C         140.6651  145.2030  159.2270 C.ar    1  UNL1       -0.0034
     30 C         140.3728  145.8645  157.9128 C.ar    1  UNL1        0.0064
     31 C         139.6605  145.1051  156.8330 C.ar    1  UNL1        0.0345
     32 BR        139.3681  145.7666  155.5189 Br      1  UNL1       -0.0490
     33 C         139.2405  143.6843  157.0673 C.ar    1  UNL1        0.0064
     34 C         139.5329  143.0228  158.3815 C.ar    1  UNL1       -0.0034
@<TRIPOS>BOND
     1    17    18    1
     2    18    15    1
     3    15    16    2
     4    15    10    1
     5    10    11   ar
     6    11    12   ar
     7    12    13   ar
     8    13     9    1
     9     9     1    1
    10     1     2    1
    11     2     3    1
    12     3     4    1
    13     4     5   am
    14     5     6    2
    15     5    19    1
    16    19    20    1
    17    20    21    1
    18    21    22   ar
    19    22    23   ar
    20    23    24   ar
    21    24    25    1
    22    24    26   ar
    23    26    27   ar
    24    20    28    1
    25    28    29   ar
    26    29    30   ar
    27    30    31   ar
    28    31    32    1
    29    31    33   ar
    30    33    34   ar
    31     4     7    1
    32     7     8    1
    33    13    14   ar
    34    14    10   ar
    35     8     1    1
    36    27    21   ar
    37    34    28   ar
@<TRIPOS>MOLECULE
*****
 34 37 0 0 0
SMALL
GASTEIGER

@<TRIPOS>ATOM
      1 N         141.9507  138.2655  161.7993 N.3     1  UNL1       -0.2619
      2 C         142.5176  138.7066  163.1162 C.3     1  UNL1        0.0943
      3 C         141.6240  139.3332  164.1452 C.3     1  UNL1        0.1107
      4 N         140.1636  139.5187  163.8573 N.am    1  UNL1       -0.2767
      5 C         139.2700  140.1453  164.8864 C.2     1  UNL1        0.2264
      6 O         137.8097  140.3308  164.5986 O.2     1  UNL1       -0.2748
      7 C         139.5968  139.0776  162.5405 C.3     1  UNL1        0.1107
      8 C         140.4903  138.4510  161.5115 C.3     1  UNL1        0.0943
      9 C         142.8443  137.6389  160.7703 C.3     1  UNL1        0.1588
     10 C         143.8309  139.9305  157.7970 C.ar    1  UNL1        0.1969
     11 C         143.0530  138.8592  157.0917 C.ar    1  UNL1        0.2068
     12 O         142.5887  137.8704  158.1196 O.2     1  UNL1       -0.4336
     13 C         143.0797  138.3305  159.4603 C.ar    1  UNL1        0.2224
     14 N         143.8474  139.6037  159.2608 N.ar    1  UNL1       -0.2042
     15 C         144.4785  141.1197  157.1517 C.2     1  UNL1        0.3625
     16 O         144.0109  142.5041  157.4903 O.2     1  UNL1       -0.2431
     17 C         146.7483  141.8817  156.1432 C.3     1  UNL1        0.2560
     18 O         145.5937  140.9245  156.1678 O.3     1  UNL1       -0.4402
     19 C         139.8369  140.5864  166.2033 C.3     1  UNL1        0.0940
     20 C         140.4131  141.9638  166.3482 C.3     1  UNL1        0.0536
     21 C         141.1432  142.3431  167.6024 C.ar    1  UNL1       -0.0178
     22 C         140.4352  143.1103  168.6795 C.ar    1  UNL1       -0.0016
     23 C         141.1654  143.4896  169.9337 C.ar    1  UNL1        0.0293
     24 C         142.6036  143.1018  170.1107 C.ar    1  UNL1        0.1401
     25 F         143.3338  143.4812  171.3648 F       1  UNL1       -0.2042
     26 C         143.3116  142.3347  169.0335 C.ar    1  UNL1        0.0293
     27 C         142.5813  141.9553  167.7794 C.ar    1  UNL1       -0.0016
     28 C         140.2590  142.9617  165.2390 C.ar    1  UNL1       -0.0179
     29 C         141.3683  143.1597  164.2489 C.ar    1  UNL1       -0.0034
     30 C         141.2143  144.1577  163.1397 C.ar    1  UNL1        0.0064
     31 C         139.9510  144.9576  163.0205 C.ar    1  UNL1        0.0345
     32 BR        139.7970  145.9555  161.9113 Br      1  UNL1       -0.0490
     33 C         138.8417  144.7596  164.0107 C.ar    1  UNL1        0.0064
     34 C         138.9957  143.7617  165.1199 C.ar    1  UNL1       -0.0034
@<TRIPOS>BOND
     1    17    18    1
     2    18    15    1
     3    15    16    2
     4    15    10    1
     5    10    11   ar
     6    11    12   ar
     7    12    13   ar
     8    13     9    1
     9     9     1    1
    10     1     2    1
    11     2     3    1
    12     3     4    1
    13     4     5   am
    14     5     6    2
    15     5    19    1
    16    19    20    1
    17    20    21    1
    18    21    22   ar
    19    22    23   ar
    20    23    24   ar
    21    24    25    1
    22    24    26   ar
    23    26    27   ar
    24    20    28    1
    25    28    29   ar
    26    29    30   ar
    27    30    31   ar
    28    31    32    1
    29    31    33   ar
    30    33    34   ar
    31     4     7    1
    32     7     8    1
    33    13    14   ar
    34    14    10   ar
    35     8     1    1
    36    27    21   ar
    37    34    28   ar
@<TRIPOS>MOLECULE
*****
 34 37 0 0 0
SMALL
GASTEIGER

@<TRIPOS>ATOM
      1 N         142.7651  138.9226  159.8104 N.3     1  UNL1       -0.2619
      2 C         143.6948  139.3170  160.9195 C.3     1  UNL1        0.0943
      3 C         143.3084  139.0659  162.3469 C.3     1  UNL1        0.1107
      4 N         141.9924  138.4203  162.6653 N.am    1  UNL1       -0.2767
      5 C         141.6061  138.1691  164.0928 C.2     1  UNL1        0.2264
      6 O         140.2901  137.5235  164.4111 O.2     1  UNL1       -0.2748
      7 C         141.0628  138.0258  161.5562 C.3     1  UNL1        0.1107
      8 C         141.4491  138.2770  160.1287 C.3     1  UNL1        0.0943
      9 C         143.1515  139.1737  158.3829 C.3     1  UNL1        0.1588
     10 C         145.6640  141.7642  156.9540 C.ar    1  UNL1        0.1969
     11 C         145.0150  142.5618  158.0461 C.ar    1  UNL1        0.2068
     12 O         143.9948  141.6884  158.7143 O.2     1  UNL1       -0.4336
     13 C         144.0133  140.3511  158.0352 C.ar    1  UNL1        0.2224
     14 N         145.0449  140.3980  156.9472 N.ar    1  UNL1       -0.2042
     15 C         146.7427  142.2480  156.0308 C.2     1  UNL1        0.3625
     16 O         146.3848  142.7959  154.6811 O.2     1  UNL1       -0.2431
     17 C         149.2392  141.8008  155.4673 C.3     1  UNL1        0.2560
     18 O         148.1794  142.1839  156.4572 O.3     1  UNL1       -0.4402
     19 C         142.5357  138.5635  165.2019 C.3     1  UNL1        0.0940
     20 C         142.3185  139.8510  165.9405 C.3     1  UNL1        0.0536
     21 C         141.7480  139.8328  167.3276 C.ar    1  UNL1       -0.0178
     22 C         140.3053  140.1781  167.5498 C.ar    1  UNL1       -0.0016
     23 C         139.7348  140.1600  168.9369 C.ar    1  UNL1        0.0293
     24 C         140.6070  139.7965  170.1019 C.ar    1  UNL1        0.1401
     25 F         140.0365  139.7783  171.4890 F       1  UNL1       -0.2042
     26 C         142.0497  139.4511  169.8797 C.ar    1  UNL1        0.0293
     27 C         142.6202  139.4693  168.4925 C.ar    1  UNL1       -0.0016
     28 C         142.6719  141.1565  165.2918 C.ar    1  UNL1       -0.0179
     29 C         141.5864  142.0962  164.8576 C.ar    1  UNL1       -0.0034
     30 C         141.9397  143.4018  164.2089 C.ar    1  UNL1        0.0064
     31 C         143.3785  143.7676  163.9946 C.ar    1  UNL1        0.0345
     32 BR        143.7319  145.0732  163.3460 Br      1  UNL1       -0.0490
     33 C         144.4641  142.8279  164.4289 C.ar    1  UNL1        0.0064
     34 C         144.1108  141.5223  165.0775 C.ar    1  UNL1       -0.0034
@<TRIPOS>BOND
     1    17    18    1
     2    18    15    1
     3    15    16    2
     4    15    10    1
     5    10    11   ar
     6    11    12   ar
     7    12    13   ar
     8    13     9    1
     9     9     1    1
    10     1     2    1
    11     2     3    1
    12     3     4    1
    13     4     5   am
    14     5     6    2
    15     5    19    1
    16    19    20    1
    17    20    21    1
    18    21    22   ar
    19    22    23   ar
    20    23    24   ar
    21    24    25    1
    22    24    26   ar
    23    26    27   ar
    24    20    28    1
    25    28    29   ar
    26    29    30   ar
    27    30    31   ar
    28    31    32    1
    29    31    33   ar
    30    33    34   ar
    31     4     7    1
    32     7     8    1
    33    13    14   ar
    34    14    10   ar
    35     8     1    1
    36    27    21   ar
    37    34    28   ar
@<TRIPOS>MOLECULE
*****
 34 37 0 0 0
SMALL
GASTEIGER

@<TRIPOS>ATOM
      1 N         141.6493  138.6567  159.5277 N.3     1  UNL1       -0.2619
      2 C         140.4278  139.2672  160.1484 C.3     1  UNL1        0.0943
      3 C         140.1405  139.0539  161.6050 C.3     1  UNL1        0.1107
      4 N         141.0746  138.2302  162.4410 N.am    1  UNL1       -0.2767
      5 C         140.7872  138.0170  163.8978 C.2     1  UNL1        0.2264
      6 O         141.7213  137.1932  164.7338 O.2     1  UNL1       -0.2748
      7 C         142.2961  137.6197  161.8204 C.3     1  UNL1        0.1107
      8 C         142.5834  137.8330  160.3637 C.3     1  UNL1        0.0943
      9 C         141.9367  138.8700  158.0710 C.3     1  UNL1        0.1588
     10 C         142.3516  135.6408  155.9578 C.ar    1  UNL1        0.1969
     11 C         143.7204  136.2427  155.8391 C.ar    1  UNL1        0.2068
     12 O         143.7316  137.5257  156.6163 O.2     1  UNL1       -0.4336
     13 C         142.3697  137.7166  157.2153 C.ar    1  UNL1        0.2224
     14 N         141.5168  136.5517  156.8083 N.ar    1  UNL1       -0.2042
     15 C         141.8973  134.3539  155.3353 C.2     1  UNL1        0.3625
     16 O         141.5183  134.3153  153.8844 O.2     1  UNL1       -0.2431
     17 C         143.0391  132.6118  156.8881 C.3     1  UNL1        0.2560
     18 O         141.8221  133.1056  156.1635 O.3     1  UNL1       -0.4402
     19 C         139.5657  138.6274  164.5184 C.3     1  UNL1        0.0940
     20 C         139.6708  139.9278  165.2588 C.3     1  UNL1        0.0536
     21 C         139.0690  141.1726  164.6774 C.ar    1  UNL1       -0.0178
     22 C         139.4892  142.5186  165.1892 C.ar    1  UNL1       -0.0016
     23 C         138.8874  143.7634  164.6078 C.ar    1  UNL1        0.0293
     24 C         137.8653  143.6624  163.5145 C.ar    1  UNL1        0.1401
     25 F         137.2635  144.9073  162.9330 F       1  UNL1       -0.2042
     26 C         137.4451  142.3165  163.0026 C.ar    1  UNL1        0.0293
     27 C         138.0470  141.0716  163.5841 C.ar    1  UNL1       -0.0016
     28 C         140.3777  139.9832  166.5807 C.ar    1  UNL1       -0.0179
     29 C         139.5872  139.9648  167.8553 C.ar    1  UNL1       -0.0034
     30 C         140.2941  140.0202  169.1771 C.ar    1  UNL1        0.0064
     31 C         141.7915  140.0940  169.2243 C.ar    1  UNL1        0.0345
     32 BR        142.4984  140.1494  170.5462 Br      1  UNL1       -0.0490
     33 C         142.5821  140.1124  167.9497 C.ar    1  UNL1        0.0064
     34 C         141.8752  140.0570  166.6278 C.ar    1  UNL1       -0.0034
@<TRIPOS>BOND
     1    17    18    1
     2    18    15    1
     3    15    16    2
     4    15    10    1
     5    10    11   ar
     6    11    12   ar
     7    12    13   ar
     8    13     9    1
     9     9     1    1
    10     1     2    1
    11     2     3    1
    12     3     4    1
    13     4     5   am
    14     5     6    2
    15     5    19    1
    16    19    20    1
    17    20    21    1
    18    21    22   ar
    19    22    23   ar
    20    23    24   ar
    21    24    25    1
    22    24    26   ar
    23    26    27   ar
    24    20    28    1
    25    28    29   ar
    26    29    30   ar
    27    30    31   ar
    28    31    32    1
    29    31    33   ar
    30    33    34   ar
    31     4     7    1
    32     7     8    1
    33    13    14   ar
    34    14    10   ar
    35     8     1    1
    36    27    21   ar
    37    34    28   ar
@<TRIPOS>MOLECULE
*****
 34 37 0 0 0
SMALL
GASTEIGER

@<TRIPOS>ATOM
      1 N         142.1870  138.4332  159.0001 N.3     1  UNL1       -0.2619
      2 C         143.1323  138.3458  160.1614 C.3     1  UNL1        0.0943
      3 C         142.5971  138.2887  161.5614 C.3     1  UNL1        0.1107
      4 N         141.1165  138.3191  161.8002 N.am    1  UNL1       -0.2767
      5 C         140.5813  138.2621  163.2003 C.2     1  UNL1        0.2264
      6 O         139.1007  138.2924  163.4391 O.2     1  UNL1       -0.2748
      7 C         140.1712  138.4065  160.6389 C.3     1  UNL1        0.1107
      8 C         140.7064  138.4636  159.2388 C.3     1  UNL1        0.0943
      9 C         142.7222  138.4903  157.5999 C.3     1  UNL1        0.1588
     10 C         142.7198  134.9875  155.9277 C.ar    1  UNL1        0.1969
     11 C         144.0163  135.5487  155.4233 C.ar    1  UNL1        0.2068
     12 O         144.1749  136.9291  155.9883 O.2     1  UNL1       -0.4336
     13 C         142.9766  137.2211  156.8419 C.ar    1  UNL1        0.2224
     14 N         142.0773  136.0212  156.8045 N.ar    1  UNL1       -0.2042
     15 C         142.1636  133.6310  155.6110 C.2     1  UNL1        0.3625
     16 O         141.5147  133.3779  154.2825 O.2     1  UNL1       -0.2431
     17 C         143.5532  131.8012  156.8236 C.3     1  UNL1        0.2560
     18 O         142.2563  132.5275  156.6226 O.3     1  UNL1       -0.4402
     19 C         141.5266  138.1747  164.3616 C.3     1  UNL1        0.0940
     20 C         141.9238  139.4181  165.1007 C.3     1  UNL1        0.0536
     21 C         142.6984  140.4932  164.3978 C.ar    1  UNL1       -0.0178
     22 C         141.9811  141.6723  163.8101 C.ar    1  UNL1       -0.0016
     23 C         142.7557  142.7473  163.1072 C.ar    1  UNL1        0.0293
     24 C         144.2477  142.6434  162.9919 C.ar    1  UNL1        0.1401
     25 F         145.0223  143.7185  162.2890 F       1  UNL1       -0.2042
     26 C         144.9650  141.4644  163.5796 C.ar    1  UNL1        0.0293
     27 C         144.1903  140.3892  164.2825 C.ar    1  UNL1       -0.0016
     28 C         141.5463  139.5864  166.5426 C.ar    1  UNL1       -0.0179
     29 C         140.1200  139.8600  166.9175 C.ar    1  UNL1       -0.0034
     30 C         139.7425  140.0283  168.3594 C.ar    1  UNL1        0.0064
     31 C         140.7914  139.9230  169.4265 C.ar    1  UNL1        0.0345
     32 BR        140.4140  140.0913  170.8684 Br      1  UNL1       -0.0490
     33 C         142.2179  139.6495  169.0516 C.ar    1  UNL1        0.0064
     34 C         142.5953  139.4811  167.6097 C.ar    1  UNL1       -0.0034
@<TRIPOS>BOND
     1    17    18    1
     2    18    15    1
     3    15    16    2
     4    15    10    1
     5    10    11   ar
     6    11    12   ar
     7    12    13   ar
     8    13     9    1
     9     9     1    1
    10     1     2    1
    11     2     3    1
    12     3     4    1
    13     4     5   am
    14     5     6    2
    15     5    19    1
    16    19    20    1
    17    20    21    1
    18    21    22   ar
    19    22    23   ar
    20    23    24   ar
    21    24    25    1
    22    24    26   ar
    23    26    27   ar
    24    20    28    1
    25    28    29   ar
    26    29    30   ar
    27    30    31   ar
    28    31    32    1
    29    31    33   ar
    30    33    34   ar
    31     4     7    1
    32     7     8    1
    33    13    14   ar
    34    14    10   ar
    35     8     1    1
    36    27    21   ar
    37    34    28   ar
@<TRIPOS>MOLECULE
*****
 34 37 0 0 0
SMALL
GASTEIGER

@<TRIPOS>ATOM
      1 N         142.0282  138.3053  161.8359 N.3     1  UNL1       -0.2619
      2 C         142.5581  138.7434  163.1690 C.3     1  UNL1        0.0943
      3 C         141.6397  139.3830  164.1677 C.3     1  UNL1        0.1107
      4 N         140.1915  139.5846  163.8332 N.am    1  UNL1       -0.2767
      5 C         139.2731  140.2243  164.8320 C.2     1  UNL1        0.2264
      6 O         137.8248  140.4259  164.4975 O.2     1  UNL1       -0.2748
      7 C         139.6616  139.1466  162.5001 C.3     1  UNL1        0.1107
      8 C         140.5800  138.5069  161.5015 C.3     1  UNL1        0.0943
      9 C         142.9466  137.6656  160.8372 C.3     1  UNL1        0.1588
     10 C         142.8272  137.9608  156.9689 C.ar    1  UNL1        0.1969
     11 C         142.7270  139.4020  157.3728 C.ar    1  UNL1        0.2068
     12 O         142.7595  139.4667  158.8710 O.2     1  UNL1       -0.4336
     13 C         142.8799  138.0657  159.3931 C.ar    1  UNL1        0.2224
     14 N         142.9217  137.1350  158.2175 N.ar    1  UNL1       -0.2042
     15 C         142.8321  137.4374  155.5631 C.2     1  UNL1        0.3625
     16 O         142.8438  138.3931  154.4070 O.2     1  UNL1       -0.2431
     17 C         141.5550  135.1768  155.4720 C.3     1  UNL1        0.2560
     18 O         142.8254  135.9584  155.3135 O.3     1  UNL1       -0.4402
     19 C         139.8029  140.6624  166.1651 C.3     1  UNL1        0.0940
     20 C         140.3949  142.0315  166.3238 C.3     1  UNL1        0.0536
     21 C         141.1184  142.3940  167.5868 C.ar    1  UNL1       -0.0178
     22 C         140.3919  143.1054  168.6895 C.ar    1  UNL1       -0.0016
     23 C         141.1155  143.4679  169.9525 C.ar    1  UNL1        0.0293
     24 C         142.5655  143.1190  170.1127 C.ar    1  UNL1        0.1401
     25 F         143.2891  143.4814  171.3757 F       1  UNL1       -0.2042
     26 C         143.2920  142.4076  169.0099 C.ar    1  UNL1        0.0293
     27 C         142.5684  142.0451  167.7469 C.ar    1  UNL1       -0.0016
     28 C         140.2634  143.0381  165.2195 C.ar    1  UNL1       -0.0179
     29 C         138.9939  143.8224  165.0669 C.ar    1  UNL1       -0.0034
     30 C         138.8623  144.8290  163.9626 C.ar    1  UNL1        0.0064
     31 C         140.0002  145.0513  163.0109 C.ar    1  UNL1        0.0345
     32 BR        139.8686  146.0579  161.9066 Br      1  UNL1       -0.0490
     33 C         141.2697  144.2670  163.1635 C.ar    1  UNL1        0.0064
     34 C         141.4013  143.2604  164.2678 C.ar    1  UNL1       -0.0034
@<TRIPOS>BOND
     1    17    18    1
     2    18    15    1
     3    15    16    2
     4    15    10    1
     5    10    11   ar
     6    11    12   ar
     7    12    13   ar
     8    13     9    1
     9     9     1    1
    10     1     2    1
    11     2     3    1
    12     3     4    1
    13     4     5   am
    14     5     6    2
    15     5    19    1
    16    19    20    1
    17    20    21    1
    18    21    22   ar
    19    22    23   ar
    20    23    24   ar
    21    24    25    1
    22    24    26   ar
    23    26    27   ar
    24    20    28    1
    25    28    29   ar
    26    29    30   ar
    27    30    31   ar
    28    31    32    1
    29    31    33   ar
    30    33    34   ar
    31     4     7    1
    32     7     8    1
    33    13    14   ar
    34    14    10   ar
    35     8     1    1
    36    27    21   ar
    37    34    28   ar
@<TRIPOS>MOLECULE
*****
 34 37 0 0 0
SMALL
GASTEIGER

@<TRIPOS>ATOM
      1 N         141.6882  138.1783  161.9584 N.3     1  UNL1       -0.2619
      2 C         141.2031  139.5975  161.9383 C.3     1  UNL1        0.0943
      3 C         140.3758  140.1234  163.0736 C.3     1  UNL1        0.1107
      4 N         140.0334  139.2301  164.2289 N.am    1  UNL1       -0.2767
      5 C         139.2060  139.7561  165.3642 C.2     1  UNL1        0.2264
      6 O         138.8637  138.8627  166.5195 O.2     1  UNL1       -0.2748
      7 C         140.5184  137.8108  164.2489 C.3     1  UNL1        0.1107
      8 C         141.3458  137.2850  163.1137 C.3     1  UNL1        0.0943
      9 C         142.5156  137.6523  160.8231 C.3     1  UNL1        0.1588
     10 C         143.8558  140.1563  158.1775 C.ar    1  UNL1        0.1969
     11 C         142.6638  139.5907  157.4637 C.ar    1  UNL1        0.2068
     12 O         142.0168  138.5838  158.3679 O.2     1  UNL1       -0.4336
     13 C         142.8087  138.5272  159.6405 C.ar    1  UNL1        0.2224
     14 N         143.9453  139.4990  159.5228 N.ar    1  UNL1       -0.2042
     15 C         144.7935  141.1965  157.6402 C.2     1  UNL1        0.3625
     16 O         144.8716  142.5448  158.2931 O.2     1  UNL1       -0.2431
     17 C         146.6238  141.9125  155.9411 C.3     1  UNL1        0.2560
     18 O         145.6531  140.8886  156.4503 O.3     1  UNL1       -0.4402
     19 C         138.7210  141.1753  165.3441 C.3     1  UNL1        0.0940
     20 C         139.7018  142.3048  165.4555 C.3     1  UNL1        0.0536
     21 C         139.6744  143.4232  164.4564 C.ar    1  UNL1       -0.0178
     22 C         138.4057  143.7421  163.7223 C.ar    1  UNL1       -0.0016
     23 C         138.3783  144.8606  162.7232 C.ar    1  UNL1        0.0293
     24 C         139.6195  145.6602  162.4581 C.ar    1  UNL1        0.1401
     25 F         139.5920  146.7786  161.4590 F       1  UNL1       -0.2042
     26 C         140.8881  145.3412  163.1922 C.ar    1  UNL1        0.0293
     27 C         140.9155  144.2227  164.1914 C.ar    1  UNL1       -0.0016
     28 C         140.7101  142.3157  166.5660 C.ar    1  UNL1       -0.0179
     29 C         142.1000  141.8071  166.3222 C.ar    1  UNL1       -0.0034
     30 C         143.1082  141.8181  167.4327 C.ar    1  UNL1        0.0064
     31 C         142.7266  142.3376  168.7871 C.ar    1  UNL1        0.0345
     32 BR        143.7349  142.3486  169.8976 Br      1  UNL1       -0.0490
     33 C         141.3367  142.8462  169.0310 C.ar    1  UNL1        0.0064
     34 C         140.3284  142.8353  167.9205 C.ar    1  UNL1       -0.0034
@<TRIPOS>BOND
     1    17    18    1
     2    18    15    1
     3    15    16    2
     4    15    10    1
     5    10    11   ar
     6    11    12   ar
     7    12    13   ar
     8    13     9    1
     9     9     1    1
    10     1     2    1
    11     2     3    1
    12     3     4    1
    13     4     5   am
    14     5     6    2
    15     5    19    1
    16    19    20    1
    17    20    21    1
    18    21    22   ar
    19    22    23   ar
    20    23    24   ar
    21    24    25    1
    22    24    26   ar
    23    26    27   ar
    24    20    28    1
    25    28    29   ar
    26    29    30   ar
    27    30    31   ar
    28    31    32    1
    29    31    33   ar
    30    33    34   ar
    31     4     7    1
    32     7     8    1
    33    13    14   ar
    34    14    10   ar
    35     8     1    1
    36    27    21   ar
    37    34    28   ar
@<TRIPOS>MOLECULE
*****
 34 37 0 0 0
SMALL
GASTEIGER

@<TRIPOS>ATOM
      1 N         143.0968  139.0266  159.7793 N.3     1  UNL1       -0.2619
      2 C         143.8251  140.0693  160.5744 C.3     1  UNL1        0.0943
      3 C         143.7954  140.0256  162.0735 C.3     1  UNL1        0.1107
      4 N         143.0375  138.9393  162.7773 N.am    1  UNL1       -0.2767
      5 C         143.0079  138.8957  164.2765 C.2     1  UNL1        0.2264
      6 O         142.2500  137.8094  164.9803 O.2     1  UNL1       -0.2748
      7 C         142.3093  137.8966  161.9822 C.3     1  UNL1        0.1107
      8 C         142.3389  137.9402  160.4831 C.3     1  UNL1        0.0943
      9 C         143.1264  139.0702  158.2801 C.3     1  UNL1        0.1588
     10 C         142.2576  135.7857  156.4032 C.ar    1  UNL1        0.1969
     11 C         141.0380  136.6122  156.1210 C.ar    1  UNL1        0.2068
     12 O         141.2151  137.9432  156.7897 O.2     1  UNL1       -0.4336
     13 C         142.5440  137.9393  157.4853 C.ar    1  UNL1        0.2224
     14 N         143.1884  136.6059  157.2464 N.ar    1  UNL1       -0.2042
     15 C         142.5033  134.3850  155.9260 C.2     1  UNL1        0.3625
     16 O         142.8734  134.1346  154.4941 O.2     1  UNL1       -0.2431
     17 C         143.3760  132.1150  156.8399 C.3     1  UNL1        0.2560
     18 O         142.3788  133.2348  156.8807 O.3     1  UNL1       -0.4402
     19 C         143.7362  139.9384  165.0716 C.3     1  UNL1        0.0940
     20 C         142.9674  141.0151  165.7786 C.3     1  UNL1        0.0536
     21 C         142.7918  140.9572  167.2672 C.ar    1  UNL1       -0.0178
     22 C         143.0563  142.1753  168.1016 C.ar    1  UNL1       -0.0016
     23 C         142.8807  142.1174  169.5901 C.ar    1  UNL1        0.0293
     24 C         142.4406  140.8413  170.2443 C.ar    1  UNL1        0.1401
     25 F         142.2650  140.7834  171.7328 F       1  UNL1       -0.2042
     26 C         142.1761  139.6232  169.4099 C.ar    1  UNL1        0.0293
     27 C         142.3517  139.6811  167.9213 C.ar    1  UNL1       -0.0016
     28 C         142.3743  142.1497  164.9970 C.ar    1  UNL1       -0.0179
     29 C         143.2425  143.2896  164.5536 C.ar    1  UNL1       -0.0034
     30 C         142.6494  144.4242  163.7720 C.ar    1  UNL1        0.0064
     31 C         141.1881  144.4189  163.4338 C.ar    1  UNL1        0.0345
     32 BR        140.5950  145.5535  162.6522 Br      1  UNL1       -0.0490
     33 C         140.3198  143.2790  163.8773 C.ar    1  UNL1        0.0064
     34 C         140.9129  142.1444  164.6589 C.ar    1  UNL1       -0.0034
@<TRIPOS>BOND
     1    17    18    1
     2    18    15    1
     3    15    16    2
     4    15    10    1
     5    10    11   ar
     6    11    12   ar
     7    12    13   ar
     8    13     9    1
     9     9     1    1
    10     1     2    1
    11     2     3    1
    12     3     4    1
    13     4     5   am
    14     5     6    2
    15     5    19    1
    16    19    20    1
    17    20    21    1
    18    21    22   ar
    19    22    23   ar
    20    23    24   ar
    21    24    25    1
    22    24    26   ar
    23    26    27   ar
    24    20    28    1
    25    28    29   ar
    26    29    30   ar
    27    30    31   ar
    28    31    32    1
    29    31    33   ar
    30    33    34   ar
    31     4     7    1
    32     7     8    1
    33    13    14   ar
    34    14    10   ar
    35     8     1    1
    36    27    21   ar
    37    34    28   ar
