@<TRIPOS>MOLECULE
*****
 25 28 0 0 0
SMALL
GASTEIGER

@<TRIPOS>ATOM
      1 C         142.3033  138.0744  159.7964 C.3     1  UNL1        0.0826
      2 C         140.8526  138.3647  160.0432 C.3     1  UNL1        0.0309
      3 C         140.3405  138.4866  161.4478 C.3     1  UNL1        0.0954
      4 N         141.2792  138.3181  162.6056 N.am    1  UNL1       -0.2642
      5 C         140.7671  138.4399  164.0102 C.2     1  UNL1        0.3039
      6 O         141.7058  138.2715  165.1680 O.2     1  UNL1       -0.2526
      7 N         139.3163  138.7302  164.2570 N.am    1  UNL1       -0.2901
      8 C         142.7300  138.0278  162.3587 C.3     1  UNL1        0.0954
      9 C         143.2420  137.9060  160.9542 C.3     1  UNL1        0.0309
     10 H         138.7002  138.8408  163.4971 H       1  UNL1        0.1509
     11 C         143.3426  136.1858  154.9762 C.3     1  UNL1        0.0773
     12 C         143.2932  137.0845  156.1762 C.ar    1  UNL1        0.1809
     13 N         143.9139  138.4458  156.2844 N.ar    1  UNL1       -0.0606
     14 O         143.6186  138.9823  157.6537 O.2     1  UNL1       -0.3374
     15 C         142.8154  137.9526  158.3917 C.ar    1  UNL1        0.2359
     16 N         142.6143  136.7797  157.4786 N.ar    1  UNL1       -0.1949
     17 C         138.8042  138.8521  165.6617 C.3     1  UNL1        0.0774
     18 C         137.8543  138.4219  166.7399 C.3     1  UNL1        0.0259
     19 C         138.8671  139.4932  167.0163 C.3     1  UNL1        0.0420
     20 C         139.4882  140.4819  167.9579 C.ar    1  UNL1       -0.0208
     21 C         140.3239  141.6060  167.4212 C.ar    1  UNL1       -0.0042
     22 C         140.9450  142.5947  168.3628 C.ar    1  UNL1       -0.0003
     23 C         140.7305  142.4593  169.8412 C.ar    1  UNL1       -0.0000
     24 C         139.8948  141.3352  170.3780 C.ar    1  UNL1       -0.0003
     25 C         139.2737  140.3465  169.4363 C.ar    1  UNL1       -0.0042
@<TRIPOS>BOND
     1    11    12    1
     2    12    13   ar
     3    13    14   ar
     4    14    15   ar
     5    15     1    1
     6     1     2    1
     7     2     3    1
     8     3     4    1
     9     4     5   am
    10     5     6    2
    11     5     7   am
    12     7    17    1
    13    17    18    1
    14    18    19    1
    15    19    20    1
    16    20    21   ar
    17    21    22   ar
    18    22    23   ar
    19    23    24   ar
    20    24    25   ar
    21     4     8    1
    22     8     9    1
    23    15    16   ar
    24    16    12   ar
    25     9     1    1
    26    19    17    1
    27    25    20   ar
    28     7    10    1
@<TRIPOS>MOLECULE
*****
 25 28 0 0 0
SMALL
GASTEIGER

@<TRIPOS>ATOM
      1 C         142.8744  138.9488  165.1537 C.3     1  UNL1        0.0826
      2 C         141.9548  138.0682  164.3608 C.3     1  UNL1        0.0309
      3 C         142.1299  137.9445  162.8762 C.3     1  UNL1        0.0954
      4 N         143.2247  138.7015  162.1845 N.am    1  UNL1       -0.2642
      5 C         143.3999  138.5778  160.6999 C.2     1  UNL1        0.3039
      6 O         144.4947  139.3347  160.0082 O.2     1  UNL1       -0.2526
      7 N         142.4802  137.6972  159.9070 N.am    1  UNL1       -0.2901
      8 C         144.1444  139.5820  162.9774 C.3     1  UNL1        0.0954
      9 C         143.9693  139.7057  164.4620 C.3     1  UNL1        0.0309
     10 H         141.7616  137.2004  160.3610 H       1  UNL1        0.1509
     11 C         140.9977  140.3338  169.8909 C.3     1  UNL1        0.0773
     12 C         141.8367  139.7090  168.8157 C.ar    1  UNL1        0.1809
     13 N         143.0230  138.8164  169.0300 N.ar    1  UNL1       -0.0606
     14 O         143.5561  138.4229  167.6843 O.2     1  UNL1       -0.3374
     15 C         142.6993  139.0724  166.6383 C.ar    1  UNL1        0.2359
     16 N         141.6367  139.8673  167.3376 N.ar    1  UNL1       -0.1949
     17 C         142.6553  137.5735  158.4223 C.3     1  UNL1        0.0774
     18 C         142.8681  138.2119  157.0818 C.3     1  UNL1        0.0259
     19 C         142.7459  136.7210  157.1915 C.3     1  UNL1        0.0420
     20 C         142.7277  135.3679  156.5443 C.ar    1  UNL1       -0.0208
     21 C         141.6124  134.9973  155.6123 C.ar    1  UNL1       -0.0042
     22 C         141.5942  133.6443  154.9651 C.ar    1  UNL1       -0.0003
     23 C         142.6914  132.6618  155.2499 C.ar    1  UNL1       -0.0000
     24 C         143.8067  133.0324  156.1819 C.ar    1  UNL1       -0.0003
     25 C         143.8248  134.3855  156.8292 C.ar    1  UNL1       -0.0042
@<TRIPOS>BOND
     1    11    12    1
     2    12    13   ar
     3    13    14   ar
     4    14    15   ar
     5    15     1    1
     6     1     2    1
     7     2     3    1
     8     3     4    1
     9     4     5   am
    10     5     6    2
    11     5     7   am
    12     7    17    1
    13    17    18    1
    14    18    19    1
    15    19    20    1
    16    20    21   ar
    17    21    22   ar
    18    22    23   ar
    19    23    24   ar
    20    24    25   ar
    21     4     8    1
    22     8     9    1
    23    15    16   ar
    24    16    12   ar
    25     9     1    1
    26    19    17    1
    27    25    20   ar
    28     7    10    1
@<TRIPOS>MOLECULE
*****
 25 28 0 0 0
SMALL
GASTEIGER

@<TRIPOS>ATOM
      1 C         141.9816  138.1860  158.9068 C.3     1  UNL1        0.0826
      2 C         142.6355  138.0330  160.2480 C.3     1  UNL1        0.0309
      3 C         141.8256  138.1949  161.5001 C.3     1  UNL1        0.0954
      4 N         140.3617  138.5098  161.4109 N.am    1  UNL1       -0.2642
      5 C         139.5517  138.6717  162.6630 C.2     1  UNL1        0.3039
      6 O         138.0879  138.9865  162.5738 O.2     1  UNL1       -0.2526
      7 N         140.2056  138.5187  164.0043 N.am    1  UNL1       -0.2901
      8 C         139.7078  138.6627  160.0696 C.3     1  UNL1        0.0954
      9 C         140.5178  138.5008  158.8176 C.3     1  UNL1        0.0309
     10 H         141.1664  138.3121  164.0628 H       1  UNL1        0.1509
     11 C         144.5717  139.2458  154.4291 C.3     1  UNL1        0.0773
     12 C         143.9821  138.5112  155.5965 C.ar    1  UNL1        0.1809
     13 N         144.0939  137.0386  155.8592 N.ar    1  UNL1       -0.0606
     14 O         143.3581  136.7376  157.1312 O.2     1  UNL1       -0.3374
     15 C         142.7916  138.0241  157.6546 C.ar    1  UNL1        0.2359
     16 N         143.1773  139.1203  156.7061 N.ar    1  UNL1       -0.1949
     17 C         139.3956  138.6806  165.2564 C.3     1  UNL1        0.0774
     18 C         138.2388  138.2683  166.1176 C.3     1  UNL1        0.0259
     19 C         139.1496  139.3734  166.5639 C.3     1  UNL1        0.0420
     20 C         139.5334  140.4113  167.5765 C.ar    1  UNL1       -0.0208
     21 C         139.2032  140.2043  169.0249 C.ar    1  UNL1       -0.0042
     22 C         139.5869  141.2423  170.0375 C.ar    1  UNL1       -0.0003
     23 C         140.3010  142.4874  169.6015 C.ar    1  UNL1       -0.0000
     24 C         140.6312  142.6944  168.1530 C.ar    1  UNL1       -0.0003
     25 C         140.2473  141.6564  167.1405 C.ar    1  UNL1       -0.0042
@<TRIPOS>BOND
     1    11    12    1
     2    12    13   ar
     3    13    14   ar
     4    14    15   ar
     5    15     1    1
     6     1     2    1
     7     2     3    1
     8     3     4    1
     9     4     5   am
    10     5     6    2
    11     5     7   am
    12     7    17    1
    13    17    18    1
    14    18    19    1
    15    19    20    1
    16    20    21   ar
    17    21    22   ar
    18    22    23   ar
    19    23    24   ar
    20    24    25   ar
    21     4     8    1
    22     8     9    1
    23    15    16   ar
    24    16    12   ar
    25     9     1    1
    26    19    17    1
    27    25    20   ar
    28     7    10    1
@<TRIPOS>MOLECULE
*****
 25 28 0 0 0
SMALL
GASTEIGER

@<TRIPOS>ATOM
      1 C         140.6737  144.2948  160.5017 C.3     1  UNL1        0.0826
      2 C         140.0707  142.9215  160.4815 C.3     1  UNL1        0.0309
      3 C         139.7846  142.2090  161.7701 C.3     1  UNL1        0.0954
      4 N         140.1015  142.8698  163.0789 N.am    1  UNL1       -0.2642
      5 C         139.8153  142.1573  164.3675 C.2     1  UNL1        0.3039
      6 O         140.1323  142.8181  165.6763 O.2     1  UNL1       -0.2526
      7 N         139.2123  140.7840  164.3473 N.am    1  UNL1       -0.2901
      8 C         140.7045  144.2431  163.0991 C.3     1  UNL1        0.0954
      9 C         140.9906  144.9556  161.8105 C.3     1  UNL1        0.0309
     10 H         139.0043  140.3503  163.4883 H       1  UNL1        0.1509
     11 C         140.0454  146.6314  155.8085 C.3     1  UNL1        0.0773
     12 C         140.6710  146.0814  157.0559 C.ar    1  UNL1        0.1809
     13 N         142.1293  146.1262  157.4045 N.ar    1  UNL1       -0.0606
     14 O         142.3078  145.4624  158.7377 O.2     1  UNL1       -0.3374
     15 C         140.9598  145.0073  159.2131 C.ar    1  UNL1        0.2359
     16 N         139.9483  145.3899  158.1737 N.ar    1  UNL1       -0.1949
     17 C         138.9262  140.0715  165.6360 C.3     1  UNL1        0.0774
     18 C         138.0937  139.1106  166.4319 C.3     1  UNL1        0.0259
     19 C         139.2631  139.7983  167.0719 C.3     1  UNL1        0.0420
     20 C         140.1327  140.0376  168.2704 C.ar    1  UNL1       -0.0208
     21 C         139.5102  140.3636  169.5956 C.ar    1  UNL1       -0.0042
     22 C         140.3798  140.6030  170.7941 C.ar    1  UNL1       -0.0003
     23 C         141.8720  140.5163  170.6674 C.ar    1  UNL1       -0.0000
     24 C         142.4945  140.1903  169.3421 C.ar    1  UNL1       -0.0003
     25 C         141.6248  139.9510  168.1436 C.ar    1  UNL1       -0.0042
@<TRIPOS>BOND
     1    11    12    1
     2    12    13   ar
     3    13    14   ar
     4    14    15   ar
     5    15     1    1
     6     1     2    1
     7     2     3    1
     8     3     4    1
     9     4     5   am
    10     5     6    2
    11     5     7   am
    12     7    17    1
    13    17    18    1
    14    18    19    1
    15    19    20    1
    16    20    21   ar
    17    21    22   ar
    18    22    23   ar
    19    23    24   ar
    20    24    25   ar
    21     4     8    1
    22     8     9    1
    23    15    16   ar
    24    16    12   ar
    25     9     1    1
    26    19    17    1
    27    25    20   ar
    28     7    10    1
@<TRIPOS>MOLECULE
*****
 25 28 0 0 0
SMALL
GASTEIGER

@<TRIPOS>ATOM
      1 C         141.6531  144.0848  160.4818 C.3     1  UNL1        0.0826
      2 C         142.2335  142.7020  160.4543 C.3     1  UNL1        0.0309
      3 C         142.3955  141.9311  161.7308 C.3     1  UNL1        0.0954
      4 N         141.9769  142.5431  163.0348 N.am    1  UNL1       -0.2642
      5 C         142.1389  141.7721  164.3113 C.2     1  UNL1        0.3039
      6 O         141.7204  142.3841  165.6153 O.2     1  UNL1       -0.2526
      7 N         142.7194  140.3893  164.2838 N.am    1  UNL1       -0.2901
      8 C         141.3965  143.9259  163.0623 C.3     1  UNL1        0.0954
      9 C         141.2345  144.6968  161.7858 C.3     1  UNL1        0.0309
     10 H         142.9940  139.9876  163.4280 H       1  UNL1        0.1509
     11 C         139.5180  146.8403  156.5157 C.3     1  UNL1        0.0773
     12 C         140.5097  146.1223  157.3823 C.ar    1  UNL1        0.1809
     13 N         141.9741  145.9618  157.0996 N.ar    1  UNL1       -0.0606
     14 O         142.5806  145.1791  158.2262 O.2     1  UNL1       -0.3374
     15 C         141.4911  144.8557  159.2053 C.ar    1  UNL1        0.2359
     16 N         140.2112  145.4387  158.6836 N.ar    1  UNL1       -0.1949
     17 C         142.8813  139.6183  165.5604 C.3     1  UNL1        0.0774
     18 C         143.4846  138.4735  166.3189 C.3     1  UNL1        0.0259
     19 C         142.5586  139.4279  167.0128 C.3     1  UNL1        0.0420
     20 C         141.8377  139.8690  168.2520 C.ar    1  UNL1       -0.0208
     21 C         142.6067  140.1383  169.5114 C.ar    1  UNL1       -0.0042
     22 C         141.8857  140.5794  170.7506 C.ar    1  UNL1       -0.0003
     23 C         140.3957  140.7512  170.7304 C.ar    1  UNL1       -0.0000
     24 C         139.6267  140.4819  169.4710 C.ar    1  UNL1       -0.0003
     25 C         140.3477  140.0408  168.2318 C.ar    1  UNL1       -0.0042
@<TRIPOS>BOND
     1    11    12    1
     2    12    13   ar
     3    13    14   ar
     4    14    15   ar
     5    15     1    1
     6     1     2    1
     7     2     3    1
     8     3     4    1
     9     4     5   am
    10     5     6    2
    11     5     7   am
    12     7    17    1
    13    17    18    1
    14    18    19    1
    15    19    20    1
    16    20    21   ar
    17    21    22   ar
    18    22    23   ar
    19    23    24   ar
    20    24    25   ar
    21     4     8    1
    22     8     9    1
    23    15    16   ar
    24    16    12   ar
    25     9     1    1
    26    19    17    1
    27    25    20   ar
    28     7    10    1
@<TRIPOS>MOLECULE
*****
 25 28 0 0 0
SMALL
GASTEIGER

@<TRIPOS>ATOM
      1 C         139.8219  140.9660  160.2313 C.3     1  UNL1        0.0826
      2 C         138.9470  140.0856  159.3890 C.3     1  UNL1        0.0309
      3 C         139.5619  139.0333  158.5147 C.3     1  UNL1        0.0954
      4 N         141.0517  138.8613  158.4827 N.am    1  UNL1       -0.2642
      5 C         141.6666  137.8089  157.6084 C.2     1  UNL1        0.3039
      6 O         143.1564  137.6370  157.5764 O.2     1  UNL1       -0.2526
      7 N         140.7918  136.9285  156.7661 N.am    1  UNL1       -0.2901
      8 C         141.9266  139.7417  159.3250 C.3     1  UNL1        0.0954
      9 C         141.3116  140.7941  160.1993 C.3     1  UNL1        0.0309
     10 H         139.8140  137.0414  156.7871 H       1  UNL1        0.1509
     11 C         137.9006  143.4986  164.4475 C.3     1  UNL1        0.0773
     12 C         138.3239  143.1825  163.0436 C.ar    1  UNL1        0.1809
     13 N         138.1976  144.0934  161.8584 N.ar    1  UNL1       -0.0606
     14 O         138.7434  143.3739  160.6607 O.2     1  UNL1       -0.3374
     15 C         139.2070  142.0184  161.1056 C.ar    1  UNL1        0.2359
     16 N         138.9477  141.9002  162.5783 N.ar    1  UNL1       -0.1949
     17 C         141.4067  135.8761  155.8918 C.3     1  UNL1        0.0774
     18 C         141.6986  135.3302  154.5255 C.3     1  UNL1        0.0259
     19 C         142.1798  134.5992  155.7437 C.3     1  UNL1        0.0420
     20 C         142.9040  133.4400  156.3616 C.ar    1  UNL1       -0.0208
     21 C         144.1260  133.6788  157.1980 C.ar    1  UNL1       -0.0042
     22 C         144.8501  132.5196  157.8159 C.ar    1  UNL1       -0.0003
     23 C         144.3523  131.1216  157.5973 C.ar    1  UNL1       -0.0000
     24 C         143.1303  130.8828  156.7609 C.ar    1  UNL1       -0.0003
     25 C         142.4061  132.0421  156.1430 C.ar    1  UNL1       -0.0042
@<TRIPOS>BOND
     1    11    12    1
     2    12    13   ar
     3    13    14   ar
     4    14    15   ar
     5    15     1    1
     6     1     2    1
     7     2     3    1
     8     3     4    1
     9     4     5   am
    10     5     6    2
    11     5     7   am
    12     7    17    1
    13    17    18    1
    14    18    19    1
    15    19    20    1
    16    20    21   ar
    17    21    22   ar
    18    22    23   ar
    19    23    24   ar
    20    24    25   ar
    21     4     8    1
    22     8     9    1
    23    15    16   ar
    24    16    12   ar
    25     9     1    1
    26    19    17    1
    27    25    20   ar
    28     7    10    1
@<TRIPOS>MOLECULE
*****
 25 28 0 0 0
SMALL
GASTEIGER

@<TRIPOS>ATOM
      1 C         139.9942  138.7470  164.6165 C.3     1  UNL1        0.0826
      2 C         139.2556  139.2043  163.3938 C.3     1  UNL1        0.0309
      3 C         139.8395  138.9678  162.0325 C.3     1  UNL1        0.0954
      4 N         141.1621  138.2739  161.8940 N.am    1  UNL1       -0.2642
      5 C         141.7460  138.0374  160.5327 C.2     1  UNL1        0.3039
      6 O         143.0687  137.3435  160.3942 O.2     1  UNL1       -0.2526
      7 N         141.0074  138.4948  159.3100 N.am    1  UNL1       -0.2901
      8 C         141.9008  137.8166  163.1167 C.3     1  UNL1        0.0954
      9 C         141.3169  138.0531  164.4780 C.3     1  UNL1        0.0309
     10 H         140.1393  138.9502  159.4009 H       1  UNL1        0.1509
     11 C         139.2954  140.5124  169.5436 C.3     1  UNL1        0.0773
     12 C         139.0891  139.7950  168.2425 C.ar    1  UNL1        0.1809
     13 N         137.9343  138.8998  167.9027 N.ar    1  UNL1       -0.0606
     14 O         138.1329  138.3984  166.5031 O.2     1  UNL1       -0.3374
     15 C         139.4103  138.9835  165.9778 C.ar    1  UNL1        0.2359
     16 N         140.0012  139.8466  167.0529 N.ar    1  UNL1       -0.1949
     17 C         141.5913  138.2583  157.9486 C.3     1  UNL1        0.0774
     18 C         142.1620  138.7938  156.6690 C.3     1  UNL1        0.0259
     19 C         142.0320  137.3131  156.8704 C.3     1  UNL1        0.0420
     20 C         142.2113  135.9126  156.3642 C.ar    1  UNL1       -0.0208
     21 C         141.2763  135.3644  155.3272 C.ar    1  UNL1       -0.0042
     22 C         141.4556  133.9639  154.8211 C.ar    1  UNL1       -0.0003
     23 C         142.5700  133.1114  155.3519 C.ar    1  UNL1       -0.0000
     24 C         143.5049  133.6596  156.3889 C.ar    1  UNL1       -0.0003
     25 C         143.3255  135.0602  156.8951 C.ar    1  UNL1       -0.0042
@<TRIPOS>BOND
     1    11    12    1
     2    12    13   ar
     3    13    14   ar
     4    14    15   ar
     5    15     1    1
     6     1     2    1
     7     2     3    1
     8     3     4    1
     9     4     5   am
    10     5     6    2
    11     5     7   am
    12     7    17    1
    13    17    18    1
    14    18    19    1
    15    19    20    1
    16    20    21   ar
    17    21    22   ar
    18    22    23   ar
    19    23    24   ar
    20    24    25   ar
    21     4     8    1
    22     8     9    1
    23    15    16   ar
    24    16    12   ar
    25     9     1    1
    26    19    17    1
    27    25    20   ar
    28     7    10    1
@<TRIPOS>MOLECULE
*****
 25 28 0 0 0
SMALL
GASTEIGER

@<TRIPOS>ATOM
      1 C         139.6926  142.8676  159.9025 C.3     1  UNL1        0.0826
      2 C         138.3927  142.4849  160.5455 C.3     1  UNL1        0.0309
      3 C         138.3894  141.7902  161.8749 C.3     1  UNL1        0.0954
      4 N         139.6862  141.4784  162.5614 N.am    1  UNL1       -0.2642
      5 C         139.6829  140.7837  163.8909 C.2     1  UNL1        0.3039
      6 O         140.9796  140.4718  164.5773 O.2     1  UNL1       -0.2526
      7 N         138.3829  140.4009  164.5338 N.am    1  UNL1       -0.2901
      8 C         140.9862  141.8612  161.9184 C.3     1  UNL1        0.0954
      9 C         140.9894  142.5558  160.5889 C.3     1  UNL1        0.0309
     10 H         137.5318  140.6056  164.0833 H       1  UNL1        0.1509
     11 C         140.2825  146.5448  156.1592 C.3     1  UNL1        0.0773
     12 C         139.9670  145.2525  156.8524 C.ar    1  UNL1        0.1809
     13 N         139.4349  144.0100  156.2019 N.ar    1  UNL1       -0.0606
     14 O         139.2673  142.9654  157.2653 O.2     1  UNL1       -0.3374
     15 C         139.6959  143.5623  158.5730 C.ar    1  UNL1        0.2359
     16 N         140.1283  144.9758  158.3178 N.ar    1  UNL1       -0.1949
     17 C         138.3796  139.7062  165.8633 C.3     1  UNL1        0.0774
     18 C         137.8092  138.6707  166.7865 C.3     1  UNL1        0.0259
     19 C         138.9443  139.5386  167.2428 C.3     1  UNL1        0.0420
     20 C         139.9257  139.9429  168.3027 C.ar    1  UNL1       -0.0208
     21 C         141.3982  139.8837  168.0233 C.ar    1  UNL1       -0.0042
     22 C         142.3796  140.2880  169.0832 C.ar    1  UNL1       -0.0003
     23 C         141.8885  140.7515  170.4226 C.ar    1  UNL1       -0.0000
     24 C         140.4159  140.8108  170.7020 C.ar    1  UNL1       -0.0003
     25 C         139.4345  140.4064  169.6420 C.ar    1  UNL1       -0.0042
@<TRIPOS>BOND
     1    11    12    1
     2    12    13   ar
     3    13    14   ar
     4    14    15   ar
     5    15     1    1
     6     1     2    1
     7     2     3    1
     8     3     4    1
     9     4     5   am
    10     5     6    2
    11     5     7   am
    12     7    17    1
    13    17    18    1
    14    18    19    1
    15    19    20    1
    16    20    21   ar
    17    21    22   ar
    18    22    23   ar
    19    23    24   ar
    20    24    25   ar
    21     4     8    1
    22     8     9    1
    23    15    16   ar
    24    16    12   ar
    25     9     1    1
    26    19    17    1
    27    25    20   ar
    28     7    10    1
@<TRIPOS>MOLECULE
*****
 25 28 0 0 0
SMALL
GASTEIGER

@<TRIPOS>ATOM
      1 C         140.9948  144.6880  158.8557 C.3     1  UNL1        0.0826
      2 C         140.2875  145.0154  160.1372 C.3     1  UNL1        0.0309
      3 C         140.8053  144.4778  161.4382 C.3     1  UNL1        0.0954
      4 N         142.0306  143.6127  161.4577 N.am    1  UNL1       -0.2642
      5 C         142.5484  143.0750  162.7588 C.2     1  UNL1        0.3039
      6 O         143.7737  142.2099  162.7783 O.2     1  UNL1       -0.2526
      7 N         141.8411  143.4024  164.0403 N.am    1  UNL1       -0.2901
      8 C         142.7379  143.2852  160.1762 C.3     1  UNL1        0.0954
      9 C         142.2201  143.8229  158.8751 C.3     1  UNL1        0.0309
     10 H         141.0369  143.9702  164.0275 H       1  UNL1        0.1509
     11 C         138.9302  147.9137  155.2207 C.3     1  UNL1        0.0773
     12 C         139.5280  146.7083  155.8838 C.ar    1  UNL1        0.1809
     13 N         139.8322  145.3975  155.2210 N.ar    1  UNL1       -0.0606
     14 O         140.4188  144.4812  156.2536 O.2     1  UNL1       -0.3374
     15 C         140.4770  145.2256  157.5545 C.ar    1  UNL1        0.2359
     16 N         139.9264  146.6021  157.3260 N.ar    1  UNL1       -0.1949
     17 C         142.3589  142.8648  165.3414 C.3     1  UNL1        0.0774
     18 C         143.5112  142.4942  166.2273 C.3     1  UNL1        0.0259
     19 C         142.1035  142.3041  166.7091 C.3     1  UNL1        0.0420
     20 C         141.1433  141.8707  167.7768 C.ar    1  UNL1       -0.0208
     21 C         140.4788  140.5288  167.6881 C.ar    1  UNL1       -0.0042
     22 C         139.5186  140.0954  168.7558 C.ar    1  UNL1       -0.0003
     23 C         139.2229  141.0038  169.9123 C.ar    1  UNL1       -0.0000
     24 C         139.8874  142.3456  170.0010 C.ar    1  UNL1       -0.0003
     25 C         140.8476  142.7791  168.9332 C.ar    1  UNL1       -0.0042
@<TRIPOS>BOND
     1    11    12    1
     2    12    13   ar
     3    13    14   ar
     4    14    15   ar
     5    15     1    1
     6     1     2    1
     7     2     3    1
     8     3     4    1
     9     4     5   am
    10     5     6    2
    11     5     7   am
    12     7    17    1
    13    17    18    1
    14    18    19    1
    15    19    20    1
    16    20    21   ar
    17    21    22   ar
    18    22    23   ar
    19    23    24   ar
    20    24    25   ar
    21     4     8    1
    22     8     9    1
    23    15    16   ar
    24    16    12   ar
    25     9     1    1
    26    19    17    1
    27    25    20   ar
    28     7    10    1
