@<TRIPOS>MOLECULE
*****
 36 40 0 0 0
SMALL
GASTEIGER

@<TRIPOS>ATOM
      1 C         142.3368  139.1764  159.1220 C.2     1  UNL1        0.3045
      2 O         143.4549  140.1619  158.9532 O.2     1  UNL1       -0.2647
      3 N         141.3179  139.3764  160.2046 N.am    1  UNL1       -0.2720
      4 C         140.1997  138.3909  160.3735 C.3     1  UNL1        0.0976
      5 C         139.1810  138.5908  161.4560 C.3     1  UNL1        0.0651
      6 C         139.2803  139.7762  162.3698 C.3     1  UNL1        0.1693
      7 C         140.3985  140.7617  162.2009 C.3     1  UNL1        0.0651
      8 C         141.4173  140.5617  161.1183 C.3     1  UNL1        0.0976
      9 C         142.6668  135.8486  157.1517 C.ar    1  UNL1        0.2501
     10 N         141.5023  136.4851  156.4526 N.ar    1  UNL1       -0.1068
     11 N         141.2369  137.8092  157.1055 N.ar    1  UNL1       -0.1021
     12 C         142.2374  137.9910  158.2082 C.ar    1  UNL1        0.3042
     13 O         143.1211  136.7793  158.2368 O.2     1  UNL1       -0.4122
     14 C         144.4791  131.8492  156.1668 C.ar    1  UNL1        0.1387
     15 C         144.7091  132.4653  157.5149 C.ar    1  UNL1        0.0371
     16 C         144.1050  133.7984  157.8432 C.ar    1  UNL1        0.0078
     17 C         143.2709  134.5155  156.8234 C.ar    1  UNL1        0.0553
     18 C         143.0409  133.8993  155.4753 C.ar    1  UNL1        0.0078
     19 C         143.6450  132.5662  155.1470 C.ar    1  UNL1        0.0371
     20 C         144.3534  129.5628  154.9393 C.3     1  UNL1        0.2525
     21 O         145.0832  130.5160  155.8385 O.3     1  UNL1       -0.4714
     22 O         138.2615  139.9762  163.4524 O.3     1  UNL1       -0.4791
     23 C         138.7017  140.1211  164.8790 C.ar    1  UNL1        0.1384
     24 C         138.3075  139.0893  165.8940 C.ar    1  UNL1        0.0366
     25 C         138.7476  139.2342  167.3206 C.ar    1  UNL1        0.0002
     26 C         139.5820  140.4109  167.7322 C.ar    1  UNL1       -0.0059
     27 C         139.9761  141.4426  166.7173 C.ar    1  UNL1        0.0002
     28 C         139.5360  141.2977  165.2907 C.ar    1  UNL1        0.0366
     29 C         140.0221  140.5558  169.1589 C.3     1  UNL1        0.0992
     30 N         141.2616  141.3345  169.4861 N.3     1  UNL1       -0.2668
     31 C         142.6448  141.0416  168.9851 C.3     1  UNL1        0.0750
     32 C         143.5736  142.0690  169.5611 C.3     1  UNL1        0.0480
     33 C         142.7645  142.9969  170.4180 C.3     1  UNL1        0.1278
     34 O         143.2917  144.1724  171.1864 O.3     1  UNL1       -0.3830
     35 C         141.3356  142.5429  170.3716 C.3     1  UNL1        0.1020
     36 H         142.5620  144.6043  171.6575 H       1  UNL1        0.2104
@<TRIPOS>BOND
     1    20    21    1
     2    21    14    1
     3    14    15   ar
     4    15    16   ar
     5    16    17   ar
     6    17     9    1
     7     9    10   ar
     8    10    11   ar
     9    11    12   ar
    10    12     1    1
    11     1     2    2
    12     1     3   am
    13     3     4    1
    14     4     5    1
    15     5     6    1
    16     6    22    1
    17    22    23    1
    18    23    24   ar
    19    24    25   ar
    20    25    26   ar
    21    26    29    1
    22    29    30    1
    23    30    31    1
    24    31    32    1
    25    32    33    1
    26    33    34    1
    27    33    35    1
    28    26    27   ar
    29    27    28   ar
    30     6     7    1
    31     7     8    1
    32    12    13   ar
    33    17    18   ar
    34    18    19   ar
    35    19    14   ar
    36    13     9   ar
    37     8     3    1
    38    28    23   ar
    39    35    30    1
    40    34    36    1
@<TRIPOS>MOLECULE
*****
 36 40 0 0 0
SMALL
GASTEIGER

@<TRIPOS>ATOM
      1 C         139.8663  139.2898  157.7937 C.2     1  UNL1        0.3045
      2 O         139.2355  140.1626  156.7495 O.2     1  UNL1       -0.2647
      3 N         139.3511  139.3136  159.2022 N.am    1  UNL1       -0.2720
      4 C         139.9819  138.4409  160.2464 C.3     1  UNL1        0.0976
      5 C         139.4667  138.4647  161.6549 C.3     1  UNL1        0.0651
      6 C         138.3206  139.3612  162.0193 C.3     1  UNL1        0.1693
      7 C         137.6898  140.2339  160.9751 C.3     1  UNL1        0.0651
      8 C         138.2050  140.2101  159.5665 C.3     1  UNL1        0.0976
      9 C         142.2921  136.4875  156.6415 C.ar    1  UNL1        0.2501
     10 N         143.2597  137.5398  157.0956 N.ar    1  UNL1       -0.1068
     11 N         142.4688  138.7177  157.5825 N.ar    1  UNL1       -0.1021
     12 C         141.0123  138.3933  157.4293 C.ar    1  UNL1        0.3042
     13 O         140.9032  137.0150  156.8478 O.2     1  UNL1       -0.4122
     14 C         143.3674  132.4558  154.9564 C.ar    1  UNL1        0.1387
     15 C         144.1427  133.0170  156.1113 C.ar    1  UNL1        0.0371
     16 C         143.7843  134.3609  156.6730 C.ar    1  UNL1        0.0078
     17 C         142.6505  135.1436  156.0798 C.ar    1  UNL1        0.0553
     18 C         141.8752  134.5824  154.9249 C.ar    1  UNL1        0.0078
     19 C         142.2336  133.2385  154.3632 C.ar    1  UNL1        0.0371
     20 C         144.6133  130.1863  155.1727 C.3     1  UNL1        0.2525
     21 O         143.7258  131.1119  154.3947 O.3     1  UNL1       -0.4714
     22 O         137.8054  139.3849  163.4278 O.3     1  UNL1       -0.4791
     23 C         138.5537  140.1380  164.4875 C.ar    1  UNL1        0.1384
     24 C         138.8918  139.4682  165.7864 C.ar    1  UNL1        0.0366
     25 C         139.6400  140.2212  166.8460 C.ar    1  UNL1        0.0002
     26 C         140.0502  141.6441  166.6069 C.ar    1  UNL1       -0.0059
     27 C         139.7121  142.3140  165.3081 C.ar    1  UNL1        0.0002
     28 C         138.9638  141.5609  164.2484 C.ar    1  UNL1        0.0366
     29 C         140.7985  142.3972  167.6667 C.3     1  UNL1        0.0992
     30 N         141.2086  141.7035  168.9317 N.3     1  UNL1       -0.2668
     31 C         140.4009  141.6191  170.1928 C.3     1  UNL1        0.0750
     32 C         141.1916  140.8357  171.1982 C.3     1  UNL1        0.0480
     33 C         142.4882  140.4359  170.5586 C.3     1  UNL1        0.1278
     34 O         143.5822  139.6396  171.2061 O.3     1  UNL1       -0.3830
     35 C         142.4987  140.9722  169.1578 C.3     1  UNL1        0.1020
     36 H         144.3105  139.5194  170.5768 H       1  UNL1        0.2104
@<TRIPOS>BOND
     1    20    21    1
     2    21    14    1
     3    14    15   ar
     4    15    16   ar
     5    16    17   ar
     6    17     9    1
     7     9    10   ar
     8    10    11   ar
     9    11    12   ar
    10    12     1    1
    11     1     2    2
    12     1     3   am
    13     3     4    1
    14     4     5    1
    15     5     6    1
    16     6    22    1
    17    22    23    1
    18    23    24   ar
    19    24    25   ar
    20    25    26   ar
    21    26    29    1
    22    29    30    1
    23    30    31    1
    24    31    32    1
    25    32    33    1
    26    33    34    1
    27    33    35    1
    28    26    27   ar
    29    27    28   ar
    30     6     7    1
    31     7     8    1
    32    12    13   ar
    33    17    18   ar
    34    18    19   ar
    35    19    14   ar
    36    13     9   ar
    37     8     3    1
    38    28    23   ar
    39    35    30    1
    40    34    36    1
@<TRIPOS>MOLECULE
*****
 36 40 0 0 0
SMALL
GASTEIGER

@<TRIPOS>ATOM
      1 C         139.9911  140.6774  157.4132 C.2     1  UNL1        0.3045
      2 O         140.6383  141.7525  156.5915 O.2     1  UNL1       -0.2647
      3 N         139.3335  141.0229  158.7164 N.am    1  UNL1       -0.2720
      4 C         138.6863  139.9479  159.5382 C.3     1  UNL1        0.0976
      5 C         138.0288  140.2934  160.8412 C.3     1  UNL1        0.0651
      6 C         138.0184  141.7140  161.3226 C.3     1  UNL1        0.1693
      7 C         138.6656  142.7891  160.5009 C.3     1  UNL1        0.0651
      8 C         139.3232  142.4435  159.1977 C.3     1  UNL1        0.0976
      9 C         140.7534  137.0291  156.3297 C.ar    1  UNL1        0.2501
     10 N         139.2816  137.1123  156.0524 N.ar    1  UNL1       -0.1068
     11 N         138.8169  138.4891  156.4245 N.ar    1  UNL1       -0.1021
     12 C         140.0015  139.2568  156.9318 C.ar    1  UNL1        0.3042
     13 O         141.1983  138.3545  156.8732 O.2     1  UNL1       -0.4122
     14 C         143.3740  133.4345  155.6503 C.ar    1  UNL1        0.1387
     15 C         142.1401  133.6307  154.8203 C.ar    1  UNL1        0.0371
     16 C         141.2666  134.8289  155.0468 C.ar    1  UNL1        0.0078
     17 C         141.6269  135.8309  156.1032 C.ar    1  UNL1        0.0553
     18 C         142.8608  135.6346  156.9333 C.ar    1  UNL1        0.0078
     19 C         143.7343  134.4364  156.7068 C.ar    1  UNL1        0.0371
     20 C         144.6095  131.3439  156.5739 C.3     1  UNL1        0.2525
     21 O         144.2475  132.2363  155.4239 O.3     1  UNL1       -0.4714
     22 O         137.3608  142.0595  162.6258 O.3     1  UNL1       -0.4791
     23 C         138.1905  142.2210  163.8649 C.ar    1  UNL1        0.1384
     24 C         138.6099  143.5895  164.3137 C.ar    1  UNL1        0.0366
     25 C         139.4395  143.7510  165.5528 C.ar    1  UNL1        0.0002
     26 C         139.8499  142.5440  166.3432 C.ar    1  UNL1       -0.0059
     27 C         139.4305  141.1755  165.8945 C.ar    1  UNL1        0.0002
     28 C         138.6009  141.0140  164.6554 C.ar    1  UNL1        0.0366
     29 C         140.6796  142.7055  167.5824 C.3     1  UNL1        0.0992
     30 N         140.8108  141.5677  168.5509 N.3     1  UNL1       -0.2668
     31 C         141.9829  140.6387  168.6663 C.3     1  UNL1        0.0750
     32 C         141.6894  139.6559  169.7606 C.3     1  UNL1        0.0480
     33 C         140.3359  139.9773  170.3217 C.3     1  UNL1        0.1278
     34 O         139.6464  139.2456  171.4350 O.3     1  UNL1       -0.3830
     35 C         139.7929  141.1588  169.5740 C.3     1  UNL1        0.1020
     36 H         138.7832  139.6542  171.6046 H       1  UNL1        0.2104
@<TRIPOS>BOND
     1    20    21    1
     2    21    14    1
     3    14    15   ar
     4    15    16   ar
     5    16    17   ar
     6    17     9    1
     7     9    10   ar
     8    10    11   ar
     9    11    12   ar
    10    12     1    1
    11     1     2    2
    12     1     3   am
    13     3     4    1
    14     4     5    1
    15     5     6    1
    16     6    22    1
    17    22    23    1
    18    23    24   ar
    19    24    25   ar
    20    25    26   ar
    21    26    29    1
    22    29    30    1
    23    30    31    1
    24    31    32    1
    25    32    33    1
    26    33    34    1
    27    33    35    1
    28    26    27   ar
    29    27    28   ar
    30     6     7    1
    31     7     8    1
    32    12    13   ar
    33    17    18   ar
    34    18    19   ar
    35    19    14   ar
    36    13     9   ar
    37     8     3    1
    38    28    23   ar
    39    35    30    1
    40    34    36    1
@<TRIPOS>MOLECULE
*****
 36 40 0 0 0
SMALL
GASTEIGER

@<TRIPOS>ATOM
      1 C         143.1353  139.7711  157.5673 C.2     1  UNL1        0.3045
      2 O         143.1127  140.8681  156.5444 O.2     1  UNL1       -0.2647
      3 N         143.5823  140.0621  158.9693 N.am    1  UNL1       -0.2720
      4 C         143.6048  138.9652  159.9921 C.3     1  UNL1        0.0976
      5 C         144.0518  139.2561  161.3940 C.3     1  UNL1        0.0651
      6 C         144.4761  140.6439  161.7732 C.3     1  UNL1        0.1693
      7 C         144.4536  141.7408  160.7504 C.3     1  UNL1        0.0651
      8 C         144.0066  141.4499  159.3483 C.3     1  UNL1        0.0976
      9 C         142.7688  136.0150  156.6602 C.ar    1  UNL1        0.2501
     10 N         141.3471  136.4801  156.5490 N.ar    1  UNL1       -0.1068
     11 N         141.3113  137.9438  156.8753 N.ar    1  UNL1       -0.1021
     12 C         142.7109  138.3833  157.1881 C.ar    1  UNL1        0.3042
     13 O         143.6117  137.1913  157.0551 O.2     1  UNL1       -0.4122
     14 C         144.2460  131.8265  155.9359 C.ar    1  UNL1        0.1387
     15 C         144.5541  132.5170  157.2314 C.ar    1  UNL1        0.0371
     16 C         144.0618  133.9131  157.4728 C.ar    1  UNL1        0.0078
     17 C         143.2612  134.6189  156.4188 C.ar    1  UNL1        0.0553
     18 C         142.9531  133.9284  155.1233 C.ar    1  UNL1        0.0078
     19 C         143.4455  132.5322  154.8819 C.ar    1  UNL1        0.0371
     20 C         144.6222  129.8197  154.3294 C.3     1  UNL1        0.2525
     21 O         144.7384  130.4304  155.6945 O.3     1  UNL1       -0.4714
     22 O         144.9231  140.9349  163.1752 O.3     1  UNL1       -0.4791
     23 C         144.0317  140.5942  164.3325 C.ar    1  UNL1        0.1384
     24 C         144.1111  139.2369  164.9662 C.ar    1  UNL1        0.0366
     25 C         143.2198  138.8962  166.1235 C.ar    1  UNL1        0.0002
     26 C         142.2489  139.9128  166.6471 C.ar    1  UNL1       -0.0059
     27 C         142.1695  141.2701  166.0134 C.ar    1  UNL1        0.0002
     28 C         143.0609  141.6107  164.8561 C.ar    1  UNL1        0.0366
     29 C         141.3575  139.5721  167.8044 C.3     1  UNL1        0.0992
     30 N         141.1780  140.5511  168.9265 N.3     1  UNL1       -0.2668
     31 C         139.9704  141.4087  169.1637 C.3     1  UNL1        0.0750
     32 C         140.2207  142.2320  170.3922 C.3     1  UNL1        0.0480
     33 C         141.5829  141.8834  170.9145 C.3     1  UNL1        0.1278
     34 O         142.2384  142.4704  172.1293 O.3     1  UNL1       -0.3830
     35 C         142.1746  140.8444  170.0086 C.3     1  UNL1        0.1020
     36 H         143.1160  142.0741  172.2465 H       1  UNL1        0.2104
@<TRIPOS>BOND
     1    20    21    1
     2    21    14    1
     3    14    15   ar
     4    15    16   ar
     5    16    17   ar
     6    17     9    1
     7     9    10   ar
     8    10    11   ar
     9    11    12   ar
    10    12     1    1
    11     1     2    2
    12     1     3   am
    13     3     4    1
    14     4     5    1
    15     5     6    1
    16     6    22    1
    17    22    23    1
    18    23    24   ar
    19    24    25   ar
    20    25    26   ar
    21    26    29    1
    22    29    30    1
    23    30    31    1
    24    31    32    1
    25    32    33    1
    26    33    34    1
    27    33    35    1
    28    26    27   ar
    29    27    28   ar
    30     6     7    1
    31     7     8    1
    32    12    13   ar
    33    17    18   ar
    34    18    19   ar
    35    19    14   ar
    36    13     9   ar
    37     8     3    1
    38    28    23   ar
    39    35    30    1
    40    34    36    1
@<TRIPOS>MOLECULE
*****
 36 40 0 0 0
SMALL
GASTEIGER

@<TRIPOS>ATOM
      1 C         142.6382  138.6031  157.4741 C.2     1  UNL1        0.3045
      2 O         142.5183  139.8307  156.6206 O.2     1  UNL1       -0.2647
      3 N         142.9999  138.7303  158.9243 N.am    1  UNL1       -0.2720
      4 C         143.1198  137.5026  159.7778 C.3     1  UNL1        0.0976
      5 C         143.4815  137.6298  161.2279 C.3     1  UNL1        0.0651
      6 C         143.7233  138.9846  161.8245 C.3     1  UNL1        0.1693
      7 C         143.6034  140.2122  160.9710 C.3     1  UNL1        0.0651
      8 C         143.2417  140.0850  159.5208 C.3     1  UNL1        0.0976
      9 C         142.7105  134.9475  156.1715 C.ar    1  UNL1        0.2501
     10 N         141.3382  135.3793  155.7470 N.ar    1  UNL1       -0.1068
     11 N         141.1440  136.8013  156.1833 N.ar    1  UNL1       -0.1021
     12 C         142.3964  137.2483  156.8774 C.ar    1  UNL1        0.3042
     13 O         143.3645  136.1025  156.8701 O.2     1  UNL1       -0.4122
     14 C         144.5436  130.8978  155.4719 C.ar    1  UNL1        0.1387
     15 C         145.0105  131.7443  156.6187 C.ar    1  UNL1        0.0371
     16 C         144.3994  133.0942  156.8519 C.ar    1  UNL1        0.0078
     17 C         143.3216  133.5976  155.9383 C.ar    1  UNL1        0.0553
     18 C         142.8547  132.7510  154.7914 C.ar    1  UNL1        0.0078
     19 C         143.4658  131.4011  154.5582 C.ar    1  UNL1        0.0371
     20 C         144.8100  128.4021  156.1434 C.3     1  UNL1        0.2525
     21 O         145.1547  129.5478  155.2387 O.3     1  UNL1       -0.4714
     22 O         144.0850  139.1118  163.2747 O.3     1  UNL1       -0.4791
     23 C         143.0181  139.3874  164.2924 C.ar    1  UNL1        0.1384
     24 C         143.3950  139.6669  165.7172 C.ar    1  UNL1        0.0366
     25 C         142.3281  139.9425  166.7349 C.ar    1  UNL1        0.0002
     26 C         140.8844  139.9385  166.3279 C.ar    1  UNL1       -0.0059
     27 C         140.5075  139.6590  164.9032 C.ar    1  UNL1        0.0002
     28 C         141.5744  139.3834  163.8855 C.ar    1  UNL1        0.0366
     29 C         139.8174  140.2142  167.3457 C.3     1  UNL1        0.0992
     30 N         140.0771  141.1830  168.4609 N.3     1  UNL1       -0.2668
     31 C         140.4186  142.6353  168.3056 C.3     1  UNL1        0.0750
     32 C         140.5933  143.2194  169.6761 C.3     1  UNL1        0.0480
     33 C         140.3598  142.1282  170.6784 C.3     1  UNL1        0.1278
     34 O         140.4326  142.2706  172.1699 O.3     1  UNL1       -0.3830
     35 C         140.0407  140.8696  169.9274 C.3     1  UNL1        0.1020
     36 H         140.2401  141.4158  172.5861 H       1  UNL1        0.2104
@<TRIPOS>BOND
     1    20    21    1
     2    21    14    1
     3    14    15   ar
     4    15    16   ar
     5    16    17   ar
     6    17     9    1
     7     9    10   ar
     8    10    11   ar
     9    11    12   ar
    10    12     1    1
    11     1     2    2
    12     1     3   am
    13     3     4    1
    14     4     5    1
    15     5     6    1
    16     6    22    1
    17    22    23    1
    18    23    24   ar
    19    24    25   ar
    20    25    26   ar
    21    26    29    1
    22    29    30    1
    23    30    31    1
    24    31    32    1
    25    32    33    1
    26    33    34    1
    27    33    35    1
    28    26    27   ar
    29    27    28   ar
    30     6     7    1
    31     7     8    1
    32    12    13   ar
    33    17    18   ar
    34    18    19   ar
    35    19    14   ar
    36    13     9   ar
    37     8     3    1
    38    28    23   ar
    39    35    30    1
    40    34    36    1
@<TRIPOS>MOLECULE
*****
 36 40 0 0 0
SMALL
GASTEIGER

@<TRIPOS>ATOM
      1 C         142.0095  139.7729  157.8120 C.2     1  UNL1        0.3045
      2 O         140.7774  140.3581  157.1879 O.2     1  UNL1       -0.2647
      3 N         142.5258  140.3209  159.1093 N.am    1  UNL1       -0.2720
      4 C         143.7579  139.7357  159.7334 C.3     1  UNL1        0.0976
      5 C         144.2741  140.2837  161.0307 C.3     1  UNL1        0.0651
      6 C         143.5583  141.4169  161.7040 C.3     1  UNL1        0.1693
      7 C         142.3262  142.0021  161.0800 C.3     1  UNL1        0.0651
      8 C         141.8099  141.4541  159.7826 C.3     1  UNL1        0.0976
      9 C         143.3327  136.4115  156.3922 C.ar    1  UNL1        0.2501
     10 N         144.3209  137.3799  155.8129 N.ar    1  UNL1       -0.1068
     11 N         143.9456  138.7570  156.2742 N.ar    1  UNL1       -0.1021
     12 C         142.7253  138.6396  157.1387 C.ar    1  UNL1        0.3042
     13 O         142.3466  137.1901  157.2115 O.2     1  UNL1       -0.4122
     14 C         143.3274  131.9534  155.7795 C.ar    1  UNL1        0.1387
     15 C         143.6969  132.5264  157.1156 C.ar    1  UNL1        0.0371
     16 C         143.6987  134.0124  157.3198 C.ar    1  UNL1        0.0078
     17 C         143.3309  134.9255  156.1880 C.ar    1  UNL1        0.0553
     18 C         142.9613  134.3524  154.8519 C.ar    1  UNL1        0.0078
     19 C         142.9595  132.8664  154.6477 C.ar    1  UNL1        0.0371
     20 C         143.0741  129.5511  156.7360 C.3     1  UNL1        0.2525
     21 O         143.3256  130.4674  155.5753 O.3     1  UNL1       -0.4714
     22 O         144.0746  141.9650  163.0014 O.3     1  UNL1       -0.4791
     23 C         143.6635  141.3340  164.2986 C.ar    1  UNL1        0.1384
     24 C         143.3243  142.1968  165.4779 C.ar    1  UNL1        0.0366
     25 C         142.9132  141.5658  166.7752 C.ar    1  UNL1        0.0002
     26 C         142.8413  140.0722  166.8931 C.ar    1  UNL1       -0.0059
     27 C         143.1804  139.2095  165.7139 C.ar    1  UNL1        0.0002
     28 C         143.5915  139.8404  164.4166 C.ar    1  UNL1        0.0366
     29 C         142.4302  139.4413  168.1905 C.3     1  UNL1        0.0992
     30 N         141.4626  140.1464  169.0940 N.3     1  UNL1       -0.2668
     31 C         139.9877  140.2936  168.8636 C.3     1  UNL1        0.0750
     32 C         139.4137  141.0663  170.0139 C.3     1  UNL1        0.0480
     33 C         140.5337  141.3969  170.9553 C.3     1  UNL1        0.1278
     34 O         140.4093  142.1617  172.2397 O.3     1  UNL1       -0.3830
     35 C         141.8000  140.8283  170.3868 C.3     1  UNL1        0.1020
     36 H         141.2817  142.2368  172.6571 H       1  UNL1        0.2104
@<TRIPOS>BOND
     1    20    21    1
     2    21    14    1
     3    14    15   ar
     4    15    16   ar
     5    16    17   ar
     6    17     9    1
     7     9    10   ar
     8    10    11   ar
     9    11    12   ar
    10    12     1    1
    11     1     2    2
    12     1     3   am
    13     3     4    1
    14     4     5    1
    15     5     6    1
    16     6    22    1
    17    22    23    1
    18    23    24   ar
    19    24    25   ar
    20    25    26   ar
    21    26    29    1
    22    29    30    1
    23    30    31    1
    24    31    32    1
    25    32    33    1
    26    33    34    1
    27    33    35    1
    28    26    27   ar
    29    27    28   ar
    30     6     7    1
    31     7     8    1
    32    12    13   ar
    33    17    18   ar
    34    18    19   ar
    35    19    14   ar
    36    13     9   ar
    37     8     3    1
    38    28    23   ar
    39    35    30    1
    40    34    36    1
@<TRIPOS>MOLECULE
*****
 36 40 0 0 0
SMALL
GASTEIGER

@<TRIPOS>ATOM
      1 C         140.3588  143.8337  157.4222 C.2     1  UNL1        0.3045
      2 O         140.7784  142.5343  156.8015 O.2     1  UNL1       -0.2647
      3 N         140.6287  144.0927  158.8749 N.am    1  UNL1       -0.2720
      4 C         140.2090  145.3922  159.4956 C.3     1  UNL1        0.0976
      5 C         140.4789  145.6511  160.9481 C.3     1  UNL1        0.0651
      6 C         141.1685  144.6107  161.7800 C.3     1  UNL1        0.1693
      7 C         141.5881  143.3113  161.1593 C.3     1  UNL1        0.0651
      8 C         141.3182  143.0523  159.7066 C.3     1  UNL1        0.0976
      9 C         139.1102  146.9860  155.5330 C.ar    1  UNL1        0.2501
     10 N         138.1061  145.9645  155.0876 N.ar    1  UNL1       -0.1068
     11 N         138.4516  144.6593  155.7411 N.ar    1  UNL1       -0.1021
     12 C         139.6692  144.8741  156.5904 C.ar    1  UNL1        0.3042
     13 O         140.0762  146.3121  156.4617 O.2     1  UNL1       -0.4122
     14 C         139.2071  151.3126  154.2994 C.ar    1  UNL1        0.1387
     15 C         138.5733  150.9176  155.6002 C.ar    1  UNL1        0.0371
     16 C         138.5410  149.4754  156.0114 C.ar    1  UNL1        0.0078
     17 C         139.1425  148.4282  155.1218 C.ar    1  UNL1        0.0553
     18 C         139.7763  148.8232  153.8209 C.ar    1  UNL1        0.0078
     19 C         139.8086  150.2654  153.4097 C.ar    1  UNL1        0.0371
     20 C         140.1521  153.1995  152.7840 C.3     1  UNL1        0.2525
     21 O         139.2395  152.7547  153.8882 O.3     1  UNL1       -0.4714
     22 O         141.4384  144.8697  163.2326 O.3     1  UNL1       -0.4791
     23 C         141.2298  143.7785  164.2404 C.ar    1  UNL1        0.1384
     24 C         142.4028  142.9965  164.7528 C.ar    1  UNL1        0.0366
     25 C         142.1942  141.9053  165.7606 C.ar    1  UNL1        0.0002
     26 C         140.8125  141.5961  166.2560 C.ar    1  UNL1       -0.0059
     27 C         139.6395  142.3781  165.7437 C.ar    1  UNL1        0.0002
     28 C         139.8481  143.4693  164.7359 C.ar    1  UNL1        0.0366
     29 C         140.6039  140.5048  167.2639 C.3     1  UNL1        0.0992
     30 N         140.9544  140.7366  168.7038 N.3     1  UNL1       -0.2668
     31 C         142.1764  140.2248  169.4073 C.3     1  UNL1        0.0750
     32 C         142.1215  140.6928  170.8312 C.3     1  UNL1        0.0480
     33 C         140.8657  141.4939  171.0080 C.3     1  UNL1        0.1278
     34 O         140.4111  142.1523  172.2768 O.3     1  UNL1       -0.3830
     35 C         140.1444  141.5209  169.6931 C.3     1  UNL1        0.1020
     36 H         139.5680  142.6063  172.1214 H       1  UNL1        0.2104
@<TRIPOS>BOND
     1    20    21    1
     2    21    14    1
     3    14    15   ar
     4    15    16   ar
     5    16    17   ar
     6    17     9    1
     7     9    10   ar
     8    10    11   ar
     9    11    12   ar
    10    12     1    1
    11     1     2    2
    12     1     3   am
    13     3     4    1
    14     4     5    1
    15     5     6    1
    16     6    22    1
    17    22    23    1
    18    23    24   ar
    19    24    25   ar
    20    25    26   ar
    21    26    29    1
    22    29    30    1
    23    30    31    1
    24    31    32    1
    25    32    33    1
    26    33    34    1
    27    33    35    1
    28    26    27   ar
    29    27    28   ar
    30     6     7    1
    31     7     8    1
    32    12    13   ar
    33    17    18   ar
    34    18    19   ar
    35    19    14   ar
    36    13     9   ar
    37     8     3    1
    38    28    23   ar
    39    35    30    1
    40    34    36    1
@<TRIPOS>MOLECULE
*****
 36 40 0 0 0
SMALL
GASTEIGER

@<TRIPOS>ATOM
      1 C         139.0140  141.9244  157.5339 C.2     1  UNL1        0.3045
      2 O         138.7743  140.8954  156.4693 O.2     1  UNL1       -0.2647
      3 N         138.6053  141.6475  158.9503 N.am    1  UNL1       -0.2720
      4 C         138.8449  142.6765  160.0150 C.3     1  UNL1        0.0976
      5 C         138.4362  142.3996  161.4313 C.3     1  UNL1        0.0651
      6 C         137.7878  141.0935  161.7831 C.3     1  UNL1        0.1693
      7 C         137.5481  140.0644  160.7184 C.3     1  UNL1        0.0651
      8 C         137.9569  140.3414  159.3020 C.3     1  UNL1        0.0976
      9 C         140.0044  145.4962  156.3818 C.ar    1  UNL1        0.2501
     10 N         141.3159  144.9846  156.8998 N.ar    1  UNL1       -0.1068
     11 N         141.1045  143.5843  157.3944 N.ar    1  UNL1       -0.1021
     12 C         139.6624  143.2305  157.1821 C.ar    1  UNL1        0.3042
     13 O         138.9825  144.4121  156.5563 O.2     1  UNL1       -0.4122
     14 C         139.2654  149.5682  154.6147 C.ar    1  UNL1        0.1387
     15 C         140.0881  148.5630  153.8644 C.ar    1  UNL1        0.0371
     16 C         140.3344  147.2057  154.4535 C.ar    1  UNL1        0.0078
     17 C         139.7581  146.8535  155.7928 C.ar    1  UNL1        0.0553
     18 C         138.9354  147.8586  156.5430 C.ar    1  UNL1        0.0078
     19 C         138.6891  149.2160  155.9540 C.ar    1  UNL1        0.0371
     20 C         138.6103  152.0647  154.9117 C.3     1  UNL1        0.2525
     21 O         139.0191  150.9255  154.0256 O.3     1  UNL1       -0.4714
     22 O         137.3791  140.8165  163.1995 O.3     1  UNL1       -0.4791
     23 C         138.4227  140.5413  164.2412 C.ar    1  UNL1        0.1384
     24 C         138.9919  139.1611  164.3862 C.ar    1  UNL1        0.0366
     25 C         140.0356  138.8860  165.4278 C.ar    1  UNL1        0.0002
     26 C         140.5101  139.9910  166.3244 C.ar    1  UNL1       -0.0059
     27 C         139.9409  141.3712  166.1794 C.ar    1  UNL1        0.0002
     28 C         138.8972  141.6464  165.1377 C.ar    1  UNL1        0.0366
     29 C         141.5538  139.7157  167.3661 C.3     1  UNL1        0.0992
     30 N         141.4387  140.3379  168.7260 N.3     1  UNL1       -0.2668
     31 C         140.3980  140.0166  169.7574 C.3     1  UNL1        0.0750
     32 C         140.6602  140.8708  170.9621 C.3     1  UNL1        0.0480
     33 C         141.8628  141.7202  170.6754 C.3     1  UNL1        0.1278
     34 O         142.4766  142.7229  171.6070 O.3     1  UNL1       -0.3830
     35 C         142.3439  141.3908  169.2933 C.3     1  UNL1        0.1020
     36 H         143.2433  143.1349  171.1790 H       1  UNL1        0.2104
@<TRIPOS>BOND
     1    20    21    1
     2    21    14    1
     3    14    15   ar
     4    15    16   ar
     5    16    17   ar
     6    17     9    1
     7     9    10   ar
     8    10    11   ar
     9    11    12   ar
    10    12     1    1
    11     1     2    2
    12     1     3   am
    13     3     4    1
    14     4     5    1
    15     5     6    1
    16     6    22    1
    17    22    23    1
    18    23    24   ar
    19    24    25   ar
    20    25    26   ar
    21    26    29    1
    22    29    30    1
    23    30    31    1
    24    31    32    1
    25    32    33    1
    26    33    34    1
    27    33    35    1
    28    26    27   ar
    29    27    28   ar
    30     6     7    1
    31     7     8    1
    32    12    13   ar
    33    17    18   ar
    34    18    19   ar
    35    19    14   ar
    36    13     9   ar
    37     8     3    1
    38    28    23   ar
    39    35    30    1
    40    34    36    1
@<TRIPOS>MOLECULE
*****
 36 40 0 0 0
SMALL
GASTEIGER

@<TRIPOS>ATOM
      1 C         143.5820  139.9001  156.7000 C.2     1  UNL1        0.3045
      2 O         143.9826  140.5573  155.4125 O.2     1  UNL1       -0.2647
      3 N         143.8745  140.5730  158.0083 N.am    1  UNL1       -0.2720
      4 C         143.4740  139.9159  159.2958 C.3     1  UNL1        0.0976
      5 C         143.7665  140.5888  160.6040 C.3     1  UNL1        0.0651
      6 C         144.4596  141.9188  160.6248 C.3     1  UNL1        0.1693
      7 C         144.8602  142.5760  159.3373 C.3     1  UNL1        0.0651
      8 C         144.5677  141.9031  158.0290 C.3     1  UNL1        0.0976
      9 C         142.4873  136.1769  156.6304 C.ar    1  UNL1        0.2501
     10 N         141.1572  136.8695  156.6640 N.ar    1  UNL1       -0.1068
     11 N         141.4054  138.3486  156.6941 N.ar    1  UNL1       -0.1021
     12 C         142.8889  138.5700  156.6792 C.ar    1  UNL1        0.3042
     13 O         143.5575  137.2279  156.6398 O.2     1  UNL1       -0.4122
     14 C         143.1505  131.7274  156.5206 C.ar    1  UNL1        0.1387
     15 C         142.0763  132.3466  155.6765 C.ar    1  UNL1        0.0371
     16 C         141.8552  133.8298  155.7131 C.ar    1  UNL1        0.0078
     17 C         142.7084  134.6937  156.5938 C.ar    1  UNL1        0.0553
     18 C         143.7826  134.0745  157.4379 C.ar    1  UNL1        0.0078
     19 C         144.0037  132.5914  157.4013 C.ar    1  UNL1        0.0371
     20 C         144.6241  129.6874  155.8748 C.3     1  UNL1        0.2525
     21 O         143.3716  130.2442  156.4840 O.3     1  UNL1       -0.4714
     22 O         144.7522  142.5917  161.9331 O.3     1  UNL1       -0.4791
     23 C         143.9125  142.2862  163.1379 C.ar    1  UNL1        0.1384
     24 C         142.5990  142.9838  163.3331 C.ar    1  UNL1        0.0366
     25 C         141.7593  142.6783  164.5379 C.ar    1  UNL1        0.0002
     26 C         142.2331  141.6752  165.5475 C.ar    1  UNL1       -0.0059
     27 C         143.5466  140.9777  165.3524 C.ar    1  UNL1        0.0002
     28 C         144.3863  141.2832  164.1476 C.ar    1  UNL1        0.0366
     29 C         141.3934  141.3697  166.7524 C.3     1  UNL1        0.0992
     30 N         141.9903  141.4609  168.1254 N.3     1  UNL1       -0.2668
     31 C         143.1154  142.3624  168.5396 C.3     1  UNL1        0.0750
     32 C         143.3874  142.1252  169.9955 C.3     1  UNL1        0.0480
     33 C         142.4304  141.0772  170.4812 C.3     1  UNL1        0.1278
     34 O         142.3509  140.5349  171.8775 O.3     1  UNL1       -0.3830
     35 C         141.5670  140.6667  169.3254 C.3     1  UNL1        0.1020
     36 H         141.6477  139.8684  171.9259 H       1  UNL1        0.2104
@<TRIPOS>BOND
     1    20    21    1
     2    21    14    1
     3    14    15   ar
     4    15    16   ar
     5    16    17   ar
     6    17     9    1
     7     9    10   ar
     8    10    11   ar
     9    11    12   ar
    10    12     1    1
    11     1     2    2
    12     1     3   am
    13     3     4    1
    14     4     5    1
    15     5     6    1
    16     6    22    1
    17    22    23    1
    18    23    24   ar
    19    24    25   ar
    20    25    26   ar
    21    26    29    1
    22    29    30    1
    23    30    31    1
    24    31    32    1
    25    32    33    1
    26    33    34    1
    27    33    35    1
    28    26    27   ar
    29    27    28   ar
    30     6     7    1
    31     7     8    1
    32    12    13   ar
    33    17    18   ar
    34    18    19   ar
    35    19    14   ar
    36    13     9   ar
    37     8     3    1
    38    28    23   ar
    39    35    30    1
    40    34    36    1
