@<TRIPOS>MOLECULE
*****
 41 46 0 0 0
SMALL
GASTEIGER

@<TRIPOS>ATOM
      1 C         141.9517  138.0754  164.0409 C.3     1  UNL1        0.0932
      2 C         142.9267  138.3850  165.1379 C.3     1  UNL1        0.0286
      3 C         144.1429  139.2141  164.8485 C.3     1  UNL1        0.0193
      4 C         144.3839  139.7336  163.4622 C.3     1  UNL1        0.0700
      5 C         143.4088  139.4240  162.3651 C.3     1  UNL1        0.0193
      6 C         142.1927  138.5949  162.6545 C.3     1  UNL1        0.0286
      7 C         143.7034  139.2834  163.5725 C.3     1  UNL1        0.1562
      8 O         142.6037  138.5337  163.8341 O.3     1  UNL1       -0.3572
      9 N         145.6000  140.5626  163.1728 N.3     1  UNL1       -0.2926
     10 H         145.7339  140.5461  162.1618 H       1  UNL1        0.1236
     11 C         145.6434  142.0022  163.5918 C.3     1  UNL1        0.1152
     12 C         144.4478  142.8822  163.3769 C.ar    1  UNL1        0.0765
     13 C         143.7632  143.5172  164.5508 C.ar    1  UNL1        0.0193
     14 C         142.5677  144.3973  164.3360 C.ar    1  UNL1        0.0411
     15 C         142.0566  144.6422  162.9472 C.ar    1  UNL1        0.1708
     16 C         142.7411  144.0072  161.7732 C.ar    1  UNL1        0.1682
     17 N         143.9367  143.1272  161.9881 N.ar    1  UNL1       -0.2304
     18 N         142.2301  144.2522  160.3844 N.am    1  UNL1       -0.2639
     19 C         141.0345  145.1322  160.1695 C.2     1  UNL1        0.2718
     20 O         140.5235  145.3772  158.7808 O.2     1  UNL1       -0.2707
     21 C         140.3500  145.7672  161.3435 C.3     1  UNL1        0.2898
     22 O         140.8610  145.5223  162.7323 O.3     1  UNL1       -0.4628
     23 H         142.6794  143.8354  159.6139 H       1  UNL1        0.1565
     24 C         140.7356  137.2464  164.3303 C.3     1  UNL1        0.0320
     25 C         139.5330  137.8761  164.9684 C.3     1  UNL1        0.0327
     26 C         139.0976  144.3820  165.4528 C.3     1  UNL1        0.0327
     27 C         139.5176  142.9973  165.8480 C.ar    1  UNL1        0.0001
     28 C         140.3500  142.7885  167.0782 C.ar    1  UNL1        0.0352
     29 C         140.7701  141.4038  167.4734 C.ar    1  UNL1        0.1860
     30 N         140.3577  140.2279  166.6384 N.ar    1  UNL1       -0.2260
     31 C         139.5253  140.4367  165.4082 C.ar    1  UNL1        0.0982
     32 C         139.1129  139.2608  164.5731 C.ar    1  UNL1        0.0260
     33 C         138.2806  139.4697  163.3429 C.ar    1  UNL1        0.1566
     34 F         137.8682  138.2938  162.5079 F       1  UNL1       -0.2028
     35 C         137.8605  140.8543  162.9477 C.ar    1  UNL1        0.1281
     36 N         138.2728  142.0302  163.7827 N.ar    1  UNL1       -0.2403
     37 C         139.1053  141.8214  165.0130 C.ar    1  UNL1        0.0949
     38 S         141.6025  141.1950  168.7037 S.O2    1  UNL1        0.0268
     39 C         142.4349  140.9862  169.9340 C.3     1  UNL1        0.1834
     40 O         142.2881  142.5071  168.4625 O.2     1  UNL1       -0.1671
     41 O         140.9168  139.8829  168.9449 O.2     1  UNL1       -0.1671
@<TRIPOS>BOND
     1    26    27    1
     2    27    28   ar
     3    28    29   ar
     4    29    38    1
     5    38    39    1
     6    38    40    2
     7    38    41    2
     8    29    30   ar
     9    30    31   ar
    10    31    32   ar
    11    32    25    1
    12    25    24    1
    13    24     1    1
    14     1     2    1
    15     2     3    1
    16     3     4    1
    17     4     9    1
    18     9    11    1
    19    11    12    1
    20    12    13   ar
    21    13    14   ar
    22    14    15   ar
    23    15    16   ar
    24    16    17   ar
    25    16    18    1
    26    18    19   am
    27    19    20    2
    28    19    21    1
    29    21    22    1
    30     4     5    1
    31     5     6    1
    32     4     7    1
    33     7     8    1
    34    32    33   ar
    35    33    34    1
    36    33    35   ar
    37    35    36   ar
    38    36    37   ar
    39    37    27   ar
    40    37    31   ar
    41     6     1    1
    42     8     1    1
    43    17    12   ar
    44    22    15    1
    45     9    10    1
    46    18    23    1
@<TRIPOS>MOLECULE
*****
 41 46 0 0 0
SMALL
GASTEIGER

@<TRIPOS>ATOM
      1 C         137.8407  142.6703  163.8724 C.3     1  UNL1        0.0932
      2 C         137.7140  142.5424  162.3833 C.3     1  UNL1        0.0286
      3 C         137.7539  141.1875  161.7408 C.3     1  UNL1        0.0193
      4 C         137.9205  139.9606  162.5874 C.3     1  UNL1        0.0700
      5 C         138.0473  140.0885  164.0766 C.3     1  UNL1        0.0193
      6 C         138.0074  141.4433  164.7191 C.3     1  UNL1        0.0286
      7 C         137.9044  140.6815  162.9848 C.3     1  UNL1        0.1562
      8 O         137.8683  141.9066  163.5658 O.3     1  UNL1       -0.3572
      9 N         137.9604  138.6057  161.9449 N.3     1  UNL1       -0.2926
     10 H         137.2050  138.5823  161.2599 H       1  UNL1        0.1236
     11 C         139.2010  138.1476  161.2371 C.3     1  UNL1        0.1152
     12 C         140.5481  138.3948  161.8488 C.ar    1  UNL1        0.0765
     13 C         141.6685  138.9273  161.0054 C.ar    1  UNL1        0.0193
     14 C         143.0156  139.1745  161.6171 C.ar    1  UNL1        0.0411
     15 C         143.2424  138.8893  163.0721 C.ar    1  UNL1        0.1708
     16 C         142.1220  138.3568  163.9156 C.ar    1  UNL1        0.1682
     17 N         140.7749  138.1096  163.3039 N.ar    1  UNL1       -0.2304
     18 N         142.3488  138.0716  165.3706 N.am    1  UNL1       -0.2639
     19 C         143.6959  138.3188  165.9823 C.2     1  UNL1        0.2718
     20 O         143.9227  138.0336  167.4373 O.2     1  UNL1       -0.2707
     21 C         144.8162  138.8513  165.1389 C.3     1  UNL1        0.2898
     22 O         144.5895  139.1366  163.6838 O.3     1  UNL1       -0.4628
     23 H         141.6135  137.7221  165.9242 H       1  UNL1        0.1565
     24 C         137.8008  144.0251  164.5149 C.3     1  UNL1        0.0320
     25 C         139.0782  144.7575  164.8008 C.3     1  UNL1        0.0327
     26 C         144.9758  142.5519  163.0390 C.3     1  UNL1        0.0327
     27 C         143.7873  142.7390  163.9349 C.ar    1  UNL1        0.0001
     28 C         143.7650  142.1040  165.2936 C.ar    1  UNL1        0.0352
     29 C         142.5765  142.2911  166.1895 C.ar    1  UNL1        0.1860
     30 N         141.4104  143.1132  165.7266 N.ar    1  UNL1       -0.2260
     31 C         141.4328  143.7482  164.3679 C.ar    1  UNL1        0.0982
     32 C         140.2667  144.5704  163.9049 C.ar    1  UNL1        0.0260
     33 C         140.2890  145.2054  162.5462 C.ar    1  UNL1        0.1566
     34 F         139.1229  146.0276  162.0832 F       1  UNL1       -0.2028
     35 C         141.4775  145.0183  161.6503 C.ar    1  UNL1        0.1281
     36 N         142.6436  144.1962  162.1132 N.ar    1  UNL1       -0.2403
     37 C         142.6212  143.5611  163.4720 C.ar    1  UNL1        0.0949
     38 S         142.5542  141.6560  167.5483 S.O2    1  UNL1        0.0268
     39 C         142.5319  141.0210  168.9070 C.3     1  UNL1        0.1834
     40 O         141.5208  140.6776  167.0741 O.2     1  UNL1       -0.1671
     41 O         143.5875  142.6344  168.0225 O.2     1  UNL1       -0.1671
@<TRIPOS>BOND
     1    26    27    1
     2    27    28   ar
     3    28    29   ar
     4    29    38    1
     5    38    39    1
     6    38    40    2
     7    38    41    2
     8    29    30   ar
     9    30    31   ar
    10    31    32   ar
    11    32    25    1
    12    25    24    1
    13    24     1    1
    14     1     2    1
    15     2     3    1
    16     3     4    1
    17     4     9    1
    18     9    11    1
    19    11    12    1
    20    12    13   ar
    21    13    14   ar
    22    14    15   ar
    23    15    16   ar
    24    16    17   ar
    25    16    18    1
    26    18    19   am
    27    19    20    2
    28    19    21    1
    29    21    22    1
    30     4     5    1
    31     5     6    1
    32     4     7    1
    33     7     8    1
    34    32    33   ar
    35    33    34    1
    36    33    35   ar
    37    35    36   ar
    38    36    37   ar
    39    37    27   ar
    40    37    31   ar
    41     6     1    1
    42     8     1    1
    43    17    12   ar
    44    22    15    1
    45     9    10    1
    46    18    23    1
@<TRIPOS>MOLECULE
*****
 41 46 0 0 0
SMALL
GASTEIGER

@<TRIPOS>ATOM
      1 C         141.9583  137.9131  163.3817 C.3     1  UNL1        0.0932
      2 C         142.7605  138.2104  162.1496 C.3     1  UNL1        0.0286
      3 C         143.9635  139.1022  162.2351 C.3     1  UNL1        0.0193
      4 C         144.3644  139.6967  163.5526 C.3     1  UNL1        0.0700
      5 C         143.5622  139.3993  164.7848 C.3     1  UNL1        0.0193
      6 C         142.3591  138.5075  164.6993 C.3     1  UNL1        0.0286
      7 C         143.6975  139.2139  163.5554 C.3     1  UNL1        0.1562
      8 O         142.6096  138.4074  163.4781 O.3     1  UNL1       -0.3572
      9 N         145.5675  140.5885  163.6381 N.3     1  UNL1       -0.2926
     10 H         146.3664  140.0357  163.3273 H       1  UNL1        0.1236
     11 C         145.6042  141.8743  162.8667 C.3     1  UNL1        0.1152
     12 C         144.4288  142.8054  162.9044 C.ar    1  UNL1        0.0765
     13 C         143.9702  143.3818  164.2110 C.ar    1  UNL1        0.0193
     14 C         142.7947  144.3129  164.2488 C.ar    1  UNL1        0.0411
     15 C         142.0779  144.6676  162.9798 C.ar    1  UNL1        0.1708
     16 C         142.5365  144.0912  161.6730 C.ar    1  UNL1        0.1682
     17 N         143.7119  143.1601  161.6353 N.ar    1  UNL1       -0.2304
     18 N         141.8196  144.4458  160.4041 N.am    1  UNL1       -0.2639
     19 C         140.6442  145.3769  160.4418 C.2     1  UNL1        0.2718
     20 O         139.9273  145.7316  159.1729 O.2     1  UNL1       -0.2707
     21 C         140.1856  145.9533  161.7485 C.3     1  UNL1        0.2898
     22 O         140.9024  145.5987  163.0175 O.3     1  UNL1       -0.4628
     23 H         142.1206  144.0675  159.5465 H       1  UNL1        0.1565
     24 C         140.7552  137.0213  163.2962 C.3     1  UNL1        0.0320
     25 C         139.4218  137.5948  162.9178 C.3     1  UNL1        0.0327
     26 C         137.6125  143.8769  163.0275 C.3     1  UNL1        0.0327
     27 C         138.0759  142.5884  162.4151 C.ar    1  UNL1        0.0001
     28 C         138.3297  142.5082  160.9389 C.ar    1  UNL1        0.0352
     29 C         138.7931  141.2197  160.3265 C.ar    1  UNL1        0.1860
     30 N         139.0027  140.0114  161.1902 N.ar    1  UNL1       -0.2260
     31 C         138.7489  140.0916  162.6664 C.ar    1  UNL1        0.0982
     32 C         138.9585  138.8833  163.5302 C.ar    1  UNL1        0.0260
     33 C         138.7046  138.9635  165.0064 C.ar    1  UNL1        0.1566
     34 F         138.9142  137.7551  165.8702 F       1  UNL1       -0.2028
     35 C         138.2413  140.2519  165.6188 C.ar    1  UNL1        0.1281
     36 N         138.0317  141.4602  164.7551 N.ar    1  UNL1       -0.2403
     37 C         138.2855  141.3801  163.2788 C.ar    1  UNL1        0.0949
     38 S         139.0470  141.1395  158.8503 S.O2    1  UNL1        0.0268
     39 C         139.3008  141.0594  157.3741 C.3     1  UNL1        0.1834
     40 O         138.1354  139.9519  158.7580 O.2     1  UNL1       -0.1671
     41 O         139.9585  142.3272  158.9425 O.2     1  UNL1       -0.1671
@<TRIPOS>BOND
     1    26    27    1
     2    27    28   ar
     3    28    29   ar
     4    29    38    1
     5    38    39    1
     6    38    40    2
     7    38    41    2
     8    29    30   ar
     9    30    31   ar
    10    31    32   ar
    11    32    25    1
    12    25    24    1
    13    24     1    1
    14     1     2    1
    15     2     3    1
    16     3     4    1
    17     4     9    1
    18     9    11    1
    19    11    12    1
    20    12    13   ar
    21    13    14   ar
    22    14    15   ar
    23    15    16   ar
    24    16    17   ar
    25    16    18    1
    26    18    19   am
    27    19    20    2
    28    19    21    1
    29    21    22    1
    30     4     5    1
    31     5     6    1
    32     4     7    1
    33     7     8    1
    34    32    33   ar
    35    33    34    1
    36    33    35   ar
    37    35    36   ar
    38    36    37   ar
    39    37    27   ar
    40    37    31   ar
    41     6     1    1
    42     8     1    1
    43    17    12   ar
    44    22    15    1
    45     9    10    1
    46    18    23    1
@<TRIPOS>MOLECULE
*****
 41 46 0 0 0
SMALL
GASTEIGER

@<TRIPOS>ATOM
      1 C         141.9865  144.9066  163.3363 C.3     1  UNL1        0.0932
      2 C         140.8009  144.5776  164.1942 C.3     1  UNL1        0.0286
      3 C         139.5254  144.1051  163.5617 C.3     1  UNL1        0.0193
      4 C         139.4355  143.9616  162.0714 C.3     1  UNL1        0.0700
      5 C         140.6212  144.2906  161.2133 C.3     1  UNL1        0.0193
      6 C         141.8966  144.7631  161.8458 C.3     1  UNL1        0.0286
      7 C         140.1556  144.2241  162.3722 C.3     1  UNL1        0.1562
      8 O         141.3090  144.6513  162.9441 O.3     1  UNL1       -0.3572
      9 N         138.1601  143.4892  161.4389 N.3     1  UNL1       -0.2926
     10 H         137.9420  144.1460  160.6896 H       1  UNL1        0.1236
     11 C         138.0818  142.1138  160.8455 C.3     1  UNL1        0.1152
     12 C         138.2896  140.9090  161.7145 C.ar    1  UNL1        0.0765
     13 C         138.8137  139.6360  161.1189 C.ar    1  UNL1        0.0193
     14 C         139.0215  138.4312  161.9880 C.ar    1  UNL1        0.0411
     15 C         138.7053  138.4994  163.4526 C.ar    1  UNL1        0.1708
     16 C         138.1811  139.7724  164.0483 C.ar    1  UNL1        0.1682
     17 N         137.9733  140.9772  163.1792 N.ar    1  UNL1       -0.2304
     18 N         137.8649  139.8406  165.5130 N.am    1  UNL1       -0.2639
     19 C         138.0727  138.6358  166.3820 C.2     1  UNL1        0.2718
     20 O         137.7564  138.7040  167.8467 O.2     1  UNL1       -0.2707
     21 C         138.5968  137.3628  165.7864 C.3     1  UNL1        0.2898
     22 O         138.9131  137.2946  164.3217 O.3     1  UNL1       -0.4628
     23 H         137.5209  140.6761  165.9039 H       1  UNL1        0.1565
     24 C         143.2619  145.3790  163.9687 C.3     1  UNL1        0.0320
     25 C         144.2493  144.3829  164.5003 C.3     1  UNL1        0.0327
     26 C         142.7622  138.1290  165.6949 C.3     1  UNL1        0.0327
     27 C         142.9282  139.5875  166.0033 C.ar    1  UNL1        0.0001
     28 C         142.5997  140.1069  167.3716 C.ar    1  UNL1        0.0352
     29 C         142.7657  141.5654  167.6800 C.ar    1  UNL1        0.1860
     30 N         143.2602  142.5046  166.6201 N.ar    1  UNL1       -0.2260
     31 C         143.5888  141.9852  165.2518 C.ar    1  UNL1        0.0982
     32 C         144.0833  142.9244  164.1919 C.ar    1  UNL1        0.0260
     33 C         144.4119  142.4050  162.8236 C.ar    1  UNL1        0.1566
     34 F         144.9064  143.3442  161.7636 F       1  UNL1       -0.2028
     35 C         144.2459  140.9465  162.5152 C.ar    1  UNL1        0.1281
     36 N         143.7513  140.0073  163.5750 N.ar    1  UNL1       -0.2403
     37 C         143.4228  140.5267  164.9434 C.ar    1  UNL1        0.0949
     38 S         142.4371  142.0848  169.0484 S.O2    1  UNL1        0.0268
     39 C         142.1086  142.6041  170.4167 C.3     1  UNL1        0.1834
     40 O         141.0585  141.5042  168.9378 O.2     1  UNL1       -0.1671
     41 O         143.8158  142.6654  169.1590 O.2     1  UNL1       -0.1671
@<TRIPOS>BOND
     1    26    27    1
     2    27    28   ar
     3    28    29   ar
     4    29    38    1
     5    38    39    1
     6    38    40    2
     7    38    41    2
     8    29    30   ar
     9    30    31   ar
    10    31    32   ar
    11    32    25    1
    12    25    24    1
    13    24     1    1
    14     1     2    1
    15     2     3    1
    16     3     4    1
    17     4     9    1
    18     9    11    1
    19    11    12    1
    20    12    13   ar
    21    13    14   ar
    22    14    15   ar
    23    15    16   ar
    24    16    17   ar
    25    16    18    1
    26    18    19   am
    27    19    20    2
    28    19    21    1
    29    21    22    1
    30     4     5    1
    31     5     6    1
    32     4     7    1
    33     7     8    1
    34    32    33   ar
    35    33    34    1
    36    33    35   ar
    37    35    36   ar
    38    36    37   ar
    39    37    27   ar
    40    37    31   ar
    41     6     1    1
    42     8     1    1
    43    17    12   ar
    44    22    15    1
    45     9    10    1
    46    18    23    1
@<TRIPOS>MOLECULE
*****
 41 46 0 0 0
SMALL
GASTEIGER

@<TRIPOS>ATOM
      1 C         144.4703  142.8295  163.2982 C.3     1  UNL1        0.0932
      2 C         143.9324  143.6058  164.4635 C.3     1  UNL1        0.0286
      3 C         142.8415  144.6138  164.2538 C.3     1  UNL1        0.0193
      4 C         142.2885  144.8455  162.8789 C.3     1  UNL1        0.0700
      5 C         142.8264  144.0691  161.7135 C.3     1  UNL1        0.0193
      6 C         143.9172  143.0611  161.9231 C.3     1  UNL1        0.0286
      7 C         142.8859  144.2826  162.9444 C.3     1  UNL1        0.1562
      8 O         143.8723  143.3711  163.1339 O.3     1  UNL1       -0.3572
      9 N         141.1977  145.8535  162.6693 N.3     1  UNL1       -0.2926
     10 H         141.1842  146.0698  161.6726 H       1  UNL1        0.1236
     11 C         139.7873  145.5245  163.0600 C.3     1  UNL1        0.1152
     12 C         139.2239  144.1666  162.7623 C.ar    1  UNL1        0.0765
     13 C         138.7559  143.2866  163.8833 C.ar    1  UNL1        0.0193
     14 C         138.1925  141.9287  163.5856 C.ar    1  UNL1        0.0411
     15 C         138.0970  141.4508  162.1670 C.ar    1  UNL1        0.1708
     16 C         138.5651  142.3308  161.0460 C.ar    1  UNL1        0.1682
     17 N         139.1285  143.6887  161.3437 N.ar    1  UNL1       -0.2304
     18 N         138.4696  141.8529  159.6274 N.am    1  UNL1       -0.2639
     19 C         137.9062  140.4950  159.3297 C.2     1  UNL1        0.2718
     20 O         137.8108  140.0171  157.9111 O.2     1  UNL1       -0.2707
     21 C         137.4382  139.6150  160.4506 C.3     1  UNL1        0.2898
     22 O         137.5336  140.0929  161.8693 O.3     1  UNL1       -0.4628
     23 H         138.7768  142.4305  158.8917 H       1  UNL1        0.1565
     24 C         145.5611  141.8215  163.5078 C.3     1  UNL1        0.0320
     25 C         145.2167  140.4107  163.8832 C.3     1  UNL1        0.0327
     26 C         139.0497  138.7759  165.3136 C.3     1  UNL1        0.0327
     27 C         140.4289  139.3056  165.5731 C.ar    1  UNL1        0.0001
     28 C         140.7933  139.8125  166.9370 C.ar    1  UNL1        0.0352
     29 C         142.1724  140.3423  167.1965 C.ar    1  UNL1        0.1860
     30 N         143.1872  140.3651  166.0921 N.ar    1  UNL1       -0.2260
     31 C         142.8228  139.8582  164.7282 C.ar    1  UNL1        0.0982
     32 C         143.8375  139.8810  163.6237 C.ar    1  UNL1        0.0260
     33 C         143.4731  139.3740  162.2598 C.ar    1  UNL1        0.1566
     34 F         144.4879  139.3968  161.1553 F       1  UNL1       -0.2028
     35 C         142.0940  138.8443  162.0004 C.ar    1  UNL1        0.1281
     36 N         141.0792  138.8215  163.1047 N.ar    1  UNL1       -0.2403
     37 C         141.4436  139.3284  164.4687 C.ar    1  UNL1        0.0949
     38 S         142.5368  140.8492  168.5604 S.O2    1  UNL1        0.0268
     39 C         142.9012  141.3560  169.9243 C.3     1  UNL1        0.1834
     40 O         142.0655  142.2205  168.1767 O.2     1  UNL1       -0.1671
     41 O         143.0081  139.4779  168.9441 O.2     1  UNL1       -0.1671
@<TRIPOS>BOND
     1    26    27    1
     2    27    28   ar
     3    28    29   ar
     4    29    38    1
     5    38    39    1
     6    38    40    2
     7    38    41    2
     8    29    30   ar
     9    30    31   ar
    10    31    32   ar
    11    32    25    1
    12    25    24    1
    13    24     1    1
    14     1     2    1
    15     2     3    1
    16     3     4    1
    17     4     9    1
    18     9    11    1
    19    11    12    1
    20    12    13   ar
    21    13    14   ar
    22    14    15   ar
    23    15    16   ar
    24    16    17   ar
    25    16    18    1
    26    18    19   am
    27    19    20    2
    28    19    21    1
    29    21    22    1
    30     4     5    1
    31     5     6    1
    32     4     7    1
    33     7     8    1
    34    32    33   ar
    35    33    34    1
    36    33    35   ar
    37    35    36   ar
    38    36    37   ar
    39    37    27   ar
    40    37    31   ar
    41     6     1    1
    42     8     1    1
    43    17    12   ar
    44    22    15    1
    45     9    10    1
    46    18    23    1
@<TRIPOS>MOLECULE
*****
 41 46 0 0 0
SMALL
GASTEIGER

@<TRIPOS>ATOM
      1 C         141.2815  144.8802  162.9938 C.3     1  UNL1        0.0932
      2 C         141.4606  144.1578  161.6915 C.3     1  UNL1        0.0286
      3 C         142.7904  143.5571  161.3437 C.3     1  UNL1        0.0193
      4 C         143.9410  143.6789  162.2983 C.3     1  UNL1        0.0700
      5 C         143.7619  144.4013  163.6006 C.3     1  UNL1        0.0193
      6 C         142.4322  145.0019  163.9484 C.3     1  UNL1        0.0286
      7 C         143.2314  144.0244  162.5327 C.3     1  UNL1        0.1562
      8 O         142.0289  144.5675  162.8471 O.3     1  UNL1       -0.3572
      9 N         145.2708  143.0782  161.9505 N.3     1  UNL1       -0.2926
     10 H         145.9751  143.7903  162.1435 H       1  UNL1        0.1236
     11 C         145.7274  141.8220  162.6312 C.3     1  UNL1        0.1152
     12 C         144.7262  140.7784  163.0295 C.ar    1  UNL1        0.0765
     13 C         144.8547  140.0818  164.3517 C.ar    1  UNL1        0.0193
     14 C         143.8536  139.0382  164.7500 C.ar    1  UNL1        0.0411
     15 C         142.7239  138.6913  163.8262 C.ar    1  UNL1        0.1708
     16 C         142.5954  139.3879  162.5039 C.ar    1  UNL1        0.1682
     17 N         143.5966  140.4315  162.1056 N.ar    1  UNL1       -0.2304
     18 N         141.4658  139.0409  161.5801 N.am    1  UNL1       -0.2639
     19 C         140.4647  137.9973  161.9784 C.2     1  UNL1        0.2718
     20 O         139.3350  137.6504  161.0546 O.2     1  UNL1       -0.2707
     21 C         140.5931  137.3007  163.3006 C.3     1  UNL1        0.2898
     22 O         141.7228  137.6477  164.2245 O.3     1  UNL1       -0.4628
     23 H         141.3814  139.4981  160.7123 H       1  UNL1        0.1565
     24 C         139.9517  145.4808  163.3416 C.3     1  UNL1        0.0320
     25 C         139.1136  144.8706  164.4256 C.3     1  UNL1        0.0327
     26 C         138.8227  138.6015  166.2596 C.3     1  UNL1        0.0327
     27 C         139.2264  140.0436  166.3457 C.ar    1  UNL1        0.0001
     28 C         140.0904  140.5142  167.4779 C.ar    1  UNL1        0.0352
     29 C         140.4941  141.9562  167.5641 C.ar    1  UNL1        0.1860
     30 N         140.0340  142.9277  166.5179 N.ar    1  UNL1       -0.2260
     31 C         139.1700  142.4571  165.3857 C.ar    1  UNL1        0.0982
     32 C         138.7098  143.4286  164.3394 C.ar    1  UNL1        0.0260
     33 C         137.8459  142.9580  163.2072 C.ar    1  UNL1        0.1566
     34 F         137.3856  143.9295  162.1610 F       1  UNL1       -0.2028
     35 C         137.4421  141.5159  163.1211 C.ar    1  UNL1        0.1281
     36 N         137.9023  140.5444  164.1672 N.ar    1  UNL1       -0.2403
     37 C         138.7663  141.0150  165.2995 C.ar    1  UNL1        0.0949
     38 S         141.3581  142.4268  168.6964 S.O2    1  UNL1        0.0268
     39 C         142.2221  142.8974  169.8287 C.3     1  UNL1        0.1834
     40 O         142.4597  141.5205  168.2327 O.2     1  UNL1       -0.1671
     41 O         140.2566  143.3332  169.1602 O.2     1  UNL1       -0.1671
@<TRIPOS>BOND
     1    26    27    1
     2    27    28   ar
     3    28    29   ar
     4    29    38    1
     5    38    39    1
     6    38    40    2
     7    38    41    2
     8    29    30   ar
     9    30    31   ar
    10    31    32   ar
    11    32    25    1
    12    25    24    1
    13    24     1    1
    14     1     2    1
    15     2     3    1
    16     3     4    1
    17     4     9    1
    18     9    11    1
    19    11    12    1
    20    12    13   ar
    21    13    14   ar
    22    14    15   ar
    23    15    16   ar
    24    16    17   ar
    25    16    18    1
    26    18    19   am
    27    19    20    2
    28    19    21    1
    29    21    22    1
    30     4     5    1
    31     5     6    1
    32     4     7    1
    33     7     8    1
    34    32    33   ar
    35    33    34    1
    36    33    35   ar
    37    35    36   ar
    38    36    37   ar
    39    37    27   ar
    40    37    31   ar
    41     6     1    1
    42     8     1    1
    43    17    12   ar
    44    22    15    1
    45     9    10    1
    46    18    23    1
@<TRIPOS>MOLECULE
*****
 41 46 0 0 0
SMALL
GASTEIGER

@<TRIPOS>ATOM
      1 C         137.9312  142.4897  163.8700 C.3     1  UNL1        0.0932
      2 C         138.0089  141.2091  164.6472 C.3     1  UNL1        0.0286
      3 C         137.9719  139.8926  163.9291 C.3     1  UNL1        0.0193
      4 C         137.8573  139.8568  162.4340 C.3     1  UNL1        0.0700
      5 C         137.7796  141.1374  161.6568 C.3     1  UNL1        0.0193
      6 C         137.8166  142.4539  162.3748 C.3     1  UNL1        0.0286
      7 C         137.8738  140.6022  162.7832 C.3     1  UNL1        0.1562
      8 O         137.9072  141.7927  163.4325 O.3     1  UNL1       -0.3572
      9 N         137.8203  138.5403  161.7159 N.3     1  UNL1       -0.2926
     10 H         137.1614  138.6442  160.9443 H       1  UNL1        0.1236
     11 C         139.0791  137.9666  161.1362 C.3     1  UNL1        0.1152
     12 C         140.4078  138.3079  161.7429 C.ar    1  UNL1        0.0765
     13 C         141.4739  138.9466  160.9031 C.ar    1  UNL1        0.0193
     14 C         142.8026  139.2879  161.5099 C.ar    1  UNL1        0.0411
     15 C         143.0651  138.9905  162.9564 C.ar    1  UNL1        0.1708
     16 C         141.9990  138.3517  163.7963 C.ar    1  UNL1        0.1682
     17 N         140.6703  138.0104  163.1896 N.ar    1  UNL1       -0.2304
     18 N         142.2615  138.0543  165.2429 N.am    1  UNL1       -0.2639
     19 C         143.5902  138.3955  165.8496 C.2     1  UNL1        0.2718
     20 O         143.8527  138.0981  167.2962 O.2     1  UNL1       -0.2707
     21 C         144.6563  139.0343  165.0098 C.3     1  UNL1        0.2898
     22 O         144.3938  139.3318  163.5632 O.3     1  UNL1       -0.4628
     23 H         141.5618  137.6350  165.7941 H       1  UNL1        0.1565
     24 C         137.9682  143.8062  164.5881 C.3     1  UNL1        0.0320
     25 C         139.2584  144.5627  164.7013 C.3     1  UNL1        0.0327
     26 C         144.6893  142.2893  161.8574 C.3     1  UNL1        0.0327
     27 C         143.3817  143.0196  161.9413 C.ar    1  UNL1        0.0001
     28 C         142.8283  143.7086  160.7293 C.ar    1  UNL1        0.0352
     29 C         141.5208  144.4388  160.8133 C.ar    1  UNL1        0.1860
     30 N         140.7667  144.4801  162.1093 N.ar    1  UNL1       -0.2260
     31 C         141.3201  143.7912  163.3213 C.ar    1  UNL1        0.0982
     32 C         140.5660  143.8325  164.6173 C.ar    1  UNL1        0.0260
     33 C         141.1194  143.1435  165.8293 C.ar    1  UNL1        0.1566
     34 F         140.3653  143.1848  167.1254 F       1  UNL1       -0.2028
     35 C         142.4269  142.4132  165.7454 C.ar    1  UNL1        0.1281
     36 N         143.1810  142.3719  164.4494 N.ar    1  UNL1       -0.2403
     37 C         142.6276  143.0609  163.2373 C.ar    1  UNL1        0.0949
     38 S         140.9674  145.1278  159.6012 S.O2    1  UNL1        0.0268
     39 C         140.4140  145.8168  158.3892 C.3     1  UNL1        0.1834
     40 O         142.2457  144.8582  158.8642 O.2     1  UNL1       -0.1671
     41 O         139.6891  145.3975  160.3382 O.2     1  UNL1       -0.1671
@<TRIPOS>BOND
     1    26    27    1
     2    27    28   ar
     3    28    29   ar
     4    29    38    1
     5    38    39    1
     6    38    40    2
     7    38    41    2
     8    29    30   ar
     9    30    31   ar
    10    31    32   ar
    11    32    25    1
    12    25    24    1
    13    24     1    1
    14     1     2    1
    15     2     3    1
    16     3     4    1
    17     4     9    1
    18     9    11    1
    19    11    12    1
    20    12    13   ar
    21    13    14   ar
    22    14    15   ar
    23    15    16   ar
    24    16    17   ar
    25    16    18    1
    26    18    19   am
    27    19    20    2
    28    19    21    1
    29    21    22    1
    30     4     5    1
    31     5     6    1
    32     4     7    1
    33     7     8    1
    34    32    33   ar
    35    33    34    1
    36    33    35   ar
    37    35    36   ar
    38    36    37   ar
    39    37    27   ar
    40    37    31   ar
    41     6     1    1
    42     8     1    1
    43    17    12   ar
    44    22    15    1
    45     9    10    1
    46    18    23    1
@<TRIPOS>MOLECULE
*****
 41 46 0 0 0
SMALL
GASTEIGER

@<TRIPOS>ATOM
      1 C         139.0509  143.3877  163.5160 C.3     1  UNL1        0.0932
      2 C         139.4797  143.5157  162.0843 C.3     1  UNL1        0.0286
      3 C         140.7979  144.1487  161.7499 C.3     1  UNL1        0.0193
      4 C         141.6872  144.6536  162.8472 C.3     1  UNL1        0.0700
      5 C         141.2585  144.5256  164.2789 C.3     1  UNL1        0.0193
      6 C         139.9403  143.8926  164.6133 C.3     1  UNL1        0.0286
      7 C         140.9740  144.3142  163.0795 C.3     1  UNL1        0.1562
      8 O         139.7820  143.7418  163.3819 O.3     1  UNL1       -0.3572
      9 N         143.0054  145.2866  162.5128 N.3     1  UNL1       -0.2926
     10 H         143.0522  146.1622  163.0339 H       1  UNL1        0.1236
     11 C         144.2825  144.5498  162.7884 C.3     1  UNL1        0.1152
     12 C         144.3120  143.0513  162.7280 C.ar    1  UNL1        0.0765
     13 C         144.7653  142.2614  163.9198 C.ar    1  UNL1        0.0193
     14 C         144.7948  140.7629  163.8593 C.ar    1  UNL1        0.0411
     15 C         144.3711  140.0544  162.6070 C.ar    1  UNL1        0.1708
     16 C         143.9177  140.8443  161.4151 C.ar    1  UNL1        0.1682
     17 N         143.8882  142.3428  161.4756 N.ar    1  UNL1       -0.2304
     18 N         143.4940  140.1357  160.1628 N.am    1  UNL1       -0.2639
     19 C         143.5235  138.6372  160.1024 C.2     1  UNL1        0.2718
     20 O         143.0997  137.9287  158.8501 O.2     1  UNL1       -0.2707
     21 C         143.9767  137.8473  161.2942 C.3     1  UNL1        0.2898
     22 O         144.4006  138.5559  162.5466 O.3     1  UNL1       -0.4628
     23 H         143.1964  140.6542  159.3806 H       1  UNL1        0.1565
     24 C         137.7328  142.7547  163.8504 C.3     1  UNL1        0.0320
     25 C         137.6423  141.2708  164.0493 C.3     1  UNL1        0.0327
     26 C         143.1406  138.2411  165.8769 C.3     1  UNL1        0.0327
     27 C         141.9194  139.0960  166.0436 C.ar    1  UNL1        0.0001
     28 C         141.6154  139.7183  167.3741 C.ar    1  UNL1        0.0352
     29 C         140.3942  140.5732  167.5408 C.ar    1  UNL1        0.1860
     30 N         139.4769  140.8057  166.3770 N.ar    1  UNL1       -0.2260
     31 C         139.7809  140.1834  165.0465 C.ar    1  UNL1        0.0982
     32 C         138.8636  140.4159  163.8826 C.ar    1  UNL1        0.0260
     33 C         139.1675  139.7936  162.5521 C.ar    1  UNL1        0.1566
     34 F         138.2502  140.0261  161.3882 F       1  UNL1       -0.2028
     35 C         140.3888  138.9387  162.3854 C.ar    1  UNL1        0.1281
     36 N         141.3061  138.7062  163.5492 N.ar    1  UNL1       -0.2403
     37 C         141.0021  139.3285  164.8798 C.ar    1  UNL1        0.0949
     38 S         140.0902  141.1956  168.8714 S.O2    1  UNL1        0.0268
     39 C         139.7863  141.8179  170.2019 C.3     1  UNL1        0.1834
     40 O         139.5528  139.8840  169.3621 O.2     1  UNL1       -0.1671
     41 O         140.6277  142.5071  168.3806 O.2     1  UNL1       -0.1671
@<TRIPOS>BOND
     1    26    27    1
     2    27    28   ar
     3    28    29   ar
     4    29    38    1
     5    38    39    1
     6    38    40    2
     7    38    41    2
     8    29    30   ar
     9    30    31   ar
    10    31    32   ar
    11    32    25    1
    12    25    24    1
    13    24     1    1
    14     1     2    1
    15     2     3    1
    16     3     4    1
    17     4     9    1
    18     9    11    1
    19    11    12    1
    20    12    13   ar
    21    13    14   ar
    22    14    15   ar
    23    15    16   ar
    24    16    17   ar
    25    16    18    1
    26    18    19   am
    27    19    20    2
    28    19    21    1
    29    21    22    1
    30     4     5    1
    31     5     6    1
    32     4     7    1
    33     7     8    1
    34    32    33   ar
    35    33    34    1
    36    33    35   ar
    37    35    36   ar
    38    36    37   ar
    39    37    27   ar
    40    37    31   ar
    41     6     1    1
    42     8     1    1
    43    17    12   ar
    44    22    15    1
    45     9    10    1
    46    18    23    1
@<TRIPOS>MOLECULE
*****
 41 46 0 0 0
SMALL
GASTEIGER

@<TRIPOS>ATOM
      1 C         144.2872  139.7208  163.6912 C.3     1  UNL1        0.0932
      2 C         143.9883  139.2529  162.2978 C.3     1  UNL1        0.0286
      3 C         142.7889  138.3906  162.0372 C.3     1  UNL1        0.0193
      4 C         141.8884  137.9962  163.1701 C.3     1  UNL1        0.0700
      5 C         142.1873  138.4640  164.5636 C.3     1  UNL1        0.0193
      6 C         143.3867  139.3263  164.8242 C.3     1  UNL1        0.0286
      7 C         142.5338  138.4700  163.3619 C.3     1  UNL1        0.1562
      8 O         143.6184  139.2498  163.5976 O.3     1  UNL1       -0.3572
      9 N         140.6890  137.1339  162.9095 N.3     1  UNL1       -0.2926
     10 H         140.8199  136.2771  163.4472 H       1  UNL1        0.1236
     11 C         139.3153  137.6423  163.2326 C.3     1  UNL1        0.1152
     12 C         138.9455  139.0600  162.9113 C.ar    1  UNL1        0.0765
     13 C         138.4525  139.4141  161.5397 C.ar    1  UNL1        0.0193
     14 C         138.0827  140.8319  161.2184 C.ar    1  UNL1        0.0411
     15 C         138.2059  141.8956  162.2688 C.ar    1  UNL1        0.1708
     16 C         138.6990  141.5415  163.6406 C.ar    1  UNL1        0.1682
     17 N         139.0688  140.1237  163.9618 N.ar    1  UNL1       -0.2304
     18 N         138.8222  142.6052  164.6910 N.am    1  UNL1       -0.2639
     19 C         138.4524  144.0229  164.3697 C.2     1  UNL1        0.2718
     20 O         138.5756  145.0866  165.4201 O.2     1  UNL1       -0.2707
     21 C         137.9593  144.3770  162.9981 C.3     1  UNL1        0.2898
     22 O         137.8361  143.3133  161.9476 O.3     1  UNL1       -0.4628
     23 H         139.1458  142.3728  165.5913 H       1  UNL1        0.1565
     24 C         145.4866  140.5831  163.9518 C.3     1  UNL1        0.0320
     25 C         145.5458  141.9740  163.3936 C.3     1  UNL1        0.0327
     26 C         140.6546  144.8355  160.1320 C.3     1  UNL1        0.0327
     27 C         141.9159  144.0420  160.3038 C.ar    1  UNL1        0.0001
     28 C         142.6235  143.4889  159.1024 C.ar    1  UNL1        0.0352
     29 C         143.8847  142.6954  159.2741 C.ar    1  UNL1        0.1860
     30 N         144.4384  142.4549  160.6473 N.ar    1  UNL1       -0.2260
     31 C         143.7309  143.0080  161.8487 C.ar    1  UNL1        0.0982
     32 C         144.2846  142.7676  163.2219 C.ar    1  UNL1        0.0260
     33 C         143.5770  143.3207  164.4233 C.ar    1  UNL1        0.1566
     34 F         144.1307  143.0802  165.7965 F       1  UNL1       -0.2028
     35 C         142.3157  144.1142  164.2515 C.ar    1  UNL1        0.1281
     36 N         141.7620  144.3547  162.8784 N.ar    1  UNL1       -0.2403
     37 C         142.4696  143.8016  161.6769 C.ar    1  UNL1        0.0949
     38 S         144.5923  142.1423  158.0726 S.O2    1  UNL1        0.0268
     39 C         145.2999  141.5892  156.8712 C.3     1  UNL1        0.1834
     40 O         143.3312  141.4495  157.6488 O.2     1  UNL1       -0.1671
     41 O         145.8534  142.8350  158.4965 O.2     1  UNL1       -0.1671
@<TRIPOS>BOND
     1    26    27    1
     2    27    28   ar
     3    28    29   ar
     4    29    38    1
     5    38    39    1
     6    38    40    2
     7    38    41    2
     8    29    30   ar
     9    30    31   ar
    10    31    32   ar
    11    32    25    1
    12    25    24    1
    13    24     1    1
    14     1     2    1
    15     2     3    1
    16     3     4    1
    17     4     9    1
    18     9    11    1
    19    11    12    1
    20    12    13   ar
    21    13    14   ar
    22    14    15   ar
    23    15    16   ar
    24    16    17   ar
    25    16    18    1
    26    18    19   am
    27    19    20    2
    28    19    21    1
    29    21    22    1
    30     4     5    1
    31     5     6    1
    32     4     7    1
    33     7     8    1
    34    32    33   ar
    35    33    34    1
    36    33    35   ar
    37    35    36   ar
    38    36    37   ar
    39    37    27   ar
    40    37    31   ar
    41     6     1    1
    42     8     1    1
    43    17    12   ar
    44    22    15    1
    45     9    10    1
    46    18    23    1
