@<TRIPOS>MOLECULE
*****
 33 37 0 0 0
SMALL
GASTEIGER

@<TRIPOS>ATOM
      1 N         139.8882  138.2776  161.9060 N.3     1  UNL1       -0.2695
      2 C         140.0512  137.8098  163.3218 C.3     1  UNL1        0.0939
      3 C         141.3269  138.0861  164.0609 C.3     1  UNL1        0.1107
      4 N         142.4396  138.8302  163.3841 N.am    1  UNL1       -0.2764
      5 C         143.7154  139.1065  164.1232 C.2     1  UNL1        0.2301
      6 O         144.8281  139.8506  163.4464 O.2     1  UNL1       -0.2745
      7 C         142.2767  139.2980  161.9683 C.3     1  UNL1        0.1107
      8 C         141.0010  139.0217  161.2292 C.3     1  UNL1        0.0939
      9 C         138.6125  138.0013  161.1669 C.3     1  UNL1        0.0770
     10 C         137.4801  138.9826  161.2325 C.3     1  UNL1        0.0459
     11 O         138.9354  145.9045  162.0084 O.2     1  UNL1       -0.2449
     12 C         138.5003  144.6726  162.7453 C.2     1  UNL1        0.3414
     13 O         138.1853  144.5860  164.2093 O.3     1  UNL1       -0.4404
     14 C         137.7940  143.1709  164.5164 C.3     1  UNL1        0.2356
     15 C         137.8671  142.3829  163.2421 C.ar    1  UNL1        0.0273
     16 C         137.5926  140.9401  162.9371 C.ar    1  UNL1       -0.0025
     17 C         137.7546  140.4255  161.5375 C.ar    1  UNL1        0.0065
     18 C         138.1910  141.3535  160.4430 C.ar    1  UNL1        0.1364
     19 F         138.3530  140.8388  159.0433 F       1  UNL1       -0.2045
     20 C         138.4656  142.7964  160.7479 C.ar    1  UNL1        0.0355
     21 C         138.3036  143.3110  162.1475 C.ar    1  UNL1        0.0774
     22 C         143.8782  138.6386  165.5390 C.3     1  UNL1        0.1116
     23 C         143.1816  139.3625  166.6529 C.ar    1  UNL1       -0.0130
     24 C         143.0366  138.7105  167.9960 C.ar    1  UNL1       -0.0022
     25 C         142.3400  139.4345  169.1098 C.ar    1  UNL1        0.0190
     26 C         141.7884  140.8104  168.8806 C.ar    1  UNL1        0.0862
     27 C         141.9334  141.4624  167.5376 C.ar    1  UNL1        0.0190
     28 C         142.6300  140.7385  166.4237 C.ar    1  UNL1       -0.0022
     29 N         141.0918  141.5343  169.9946 N.ar    1  UNL1       -0.1886
     30 C         140.0282  142.5802  169.8370 C.ar    1  UNL1        0.2258
     31 N         139.6155  143.0317  171.2066 N.ar    1  UNL1       -0.1045
     32 N         140.4241  142.2648  172.2106 N.ar    1  UNL1       -0.0222
     33 N         141.3365  141.3394  171.4616 N.ar    1  UNL1       -0.0385
@<TRIPOS>BOND
     1    11    12    2
     2    12    13    1
     3    13    14    1
     4    14    15    1
     5    15    16   ar
     6    16    17   ar
     7    17    10    1
     8    10     9    1
     9     9     1    1
    10     1     2    1
    11     2     3    1
    12     3     4    1
    13     4     5   am
    14     5     6    2
    15     5    22    1
    16    22    23    1
    17    23    24   ar
    18    24    25   ar
    19    25    26   ar
    20    26    29    1
    21    29    30   ar
    22    30    31   ar
    23    31    32   ar
    24    32    33   ar
    25    26    27   ar
    26    27    28   ar
    27     4     7    1
    28     7     8    1
    29    17    18   ar
    30    18    19    1
    31    18    20   ar
    32    20    21   ar
    33    21    12    1
    34    21    15   ar
    35     8     1    1
    36    28    23   ar
    37    33    29   ar
@<TRIPOS>MOLECULE
*****
 33 37 0 0 0
SMALL
GASTEIGER

@<TRIPOS>ATOM
      1 N         143.0389  141.5395  161.3141 N.3     1  UNL1       -0.2695
      2 C         143.4851  141.4631  162.7441 C.3     1  UNL1        0.0939
      3 C         143.0880  140.2912  163.5922 C.3     1  UNL1        0.1107
      4 N         142.2446  139.1958  163.0101 N.am    1  UNL1       -0.2764
      5 C         141.8475  138.0240  163.8581 C.2     1  UNL1        0.2301
      6 O         141.0041  136.9286  163.2761 O.2     1  UNL1       -0.2745
      7 C         141.7984  139.2723  161.5801 C.3     1  UNL1        0.1107
      8 C         142.1955  140.4441  160.7321 C.3     1  UNL1        0.0939
      9 C         143.4360  142.7113  160.4660 C.3     1  UNL1        0.0770
     10 C         142.6009  143.9572  160.4699 C.3     1  UNL1        0.0459
     11 O         138.5029  145.4233  166.0993 O.2     1  UNL1       -0.2449
     12 C         138.5009  144.8025  164.7338 C.2     1  UNL1        0.3414
     13 O         137.3203  144.1779  164.0510 O.3     1  UNL1       -0.4404
     14 C         137.7689  143.6866  162.7065 C.3     1  UNL1        0.2356
     15 C         139.2267  144.0075  162.5585 C.ar    1  UNL1        0.0273
     16 C         140.2006  143.7609  161.4447 C.ar    1  UNL1       -0.0025
     17 C         141.6269  144.2039  161.5838 C.ar    1  UNL1        0.0065
     18 C         142.0793  144.8935  162.8366 C.ar    1  UNL1        0.1364
     19 F         143.5057  145.3365  162.9758 F       1  UNL1       -0.2045
     20 C         141.1053  145.1401  163.9505 C.ar    1  UNL1        0.0355
     21 C         139.6790  144.6972  163.8114 C.ar    1  UNL1        0.0774
     22 C         142.2938  137.9477  165.2882 C.3     1  UNL1        0.1116
     23 C         141.8067  138.9612  166.2809 C.ar    1  UNL1       -0.0130
     24 C         142.7325  139.4758  167.3431 C.ar    1  UNL1       -0.0022
     25 C         142.2454  140.4893  168.3358 C.ar    1  UNL1        0.0190
     26 C         140.8325  140.9883  168.2664 C.ar    1  UNL1        0.0862
     27 C         139.9067  140.4738  167.2043 C.ar    1  UNL1        0.0190
     28 C         140.3937  139.4602  166.2115 C.ar    1  UNL1       -0.0022
     29 N         140.3454  142.0018  169.2592 N.ar    1  UNL1       -0.1886
     30 C         140.6562  143.4692  169.2456 C.ar    1  UNL1        0.2258
     31 N         139.9650  144.1003  170.4178 N.ar    1  UNL1       -0.1045
     32 N         139.2271  143.0229  171.1558 N.ar    1  UNL1       -0.0222
     33 N         139.4622  141.7260  170.4397 N.ar    1  UNL1       -0.0385
@<TRIPOS>BOND
     1    11    12    2
     2    12    13    1
     3    13    14    1
     4    14    15    1
     5    15    16   ar
     6    16    17   ar
     7    17    10    1
     8    10     9    1
     9     9     1    1
    10     1     2    1
    11     2     3    1
    12     3     4    1
    13     4     5   am
    14     5     6    2
    15     5    22    1
    16    22    23    1
    17    23    24   ar
    18    24    25   ar
    19    25    26   ar
    20    26    29    1
    21    29    30   ar
    22    30    31   ar
    23    31    32   ar
    24    32    33   ar
    25    26    27   ar
    26    27    28   ar
    27     4     7    1
    28     7     8    1
    29    17    18   ar
    30    18    19    1
    31    18    20   ar
    32    20    21   ar
    33    21    12    1
    34    21    15   ar
    35     8     1    1
    36    28    23   ar
    37    33    29   ar
@<TRIPOS>MOLECULE
*****
 33 37 0 0 0
SMALL
GASTEIGER

@<TRIPOS>ATOM
      1 N         140.8704  138.4724  161.1292 N.3     1  UNL1       -0.2695
      2 C         140.4656  138.0383  162.5067 C.3     1  UNL1        0.0939
      3 C         141.4284  138.1736  163.6491 C.3     1  UNL1        0.1107
      4 N         142.7960  138.7430  163.4138 N.am    1  UNL1       -0.2764
      5 C         143.7587  138.8783  164.5560 C.2     1  UNL1        0.2301
      6 O         145.1264  139.4477  164.3207 O.2     1  UNL1       -0.2745
      7 C         143.2008  139.1771  162.0362 C.3     1  UNL1        0.1107
      8 C         142.2381  139.0418  160.8939 C.3     1  UNL1        0.0939
      9 C         139.9077  138.3371  159.9869 C.3     1  UNL1        0.0770
     10 C         139.0137  139.4841  159.6196 C.3     1  UNL1        0.0459
     11 O         137.4005  144.2449  164.6560 O.2     1  UNL1       -0.2449
     12 C         138.1791  144.0443  163.3897 C.2     1  UNL1        0.3414
     13 O         139.0271  145.0739  162.7036 O.3     1  UNL1       -0.4404
     14 C         139.6185  144.4448  161.4771 C.3     1  UNL1        0.2356
     15 C         139.1360  143.0263  161.4051 C.ar    1  UNL1        0.0273
     16 C         139.3918  141.9281  160.4159 C.ar    1  UNL1       -0.0025
     17 C         138.7579  140.5824  160.6089 C.ar    1  UNL1        0.0065
     18 C         137.8684  140.3348  161.7909 C.ar    1  UNL1        0.1364
     19 F         137.2345  138.9890  161.9838 F       1  UNL1       -0.2045
     20 C         137.6126  141.4331  162.7801 C.ar    1  UNL1        0.0355
     21 C         138.2464  142.7788  162.5872 C.ar    1  UNL1        0.0774
     22 C         143.3538  138.4442  165.9336 C.3     1  UNL1        0.1116
     23 C         142.6461  139.4032  166.8443 C.ar    1  UNL1       -0.0130
     24 C         142.6726  139.1865  168.3284 C.ar    1  UNL1       -0.0022
     25 C         141.9649  140.1455  169.2391 C.ar    1  UNL1        0.0190
     26 C         141.2308  141.3212  168.6659 C.ar    1  UNL1        0.0862
     27 C         141.2042  141.5380  167.1819 C.ar    1  UNL1        0.0190
     28 C         141.9119  140.5790  166.2710 C.ar    1  UNL1       -0.0022
     29 N         140.5231  142.2802  169.5767 N.ar    1  UNL1       -0.1886
     30 C         140.6427  143.7752  169.5477 C.ar    1  UNL1        0.2258
     31 N         139.7651  144.3315  170.6294 N.ar    1  UNL1       -0.1045
     32 N         139.1031  143.1805  171.3271 N.ar    1  UNL1       -0.0222
     33 N         139.5715  141.9127  170.6765 N.ar    1  UNL1       -0.0385
@<TRIPOS>BOND
     1    11    12    2
     2    12    13    1
     3    13    14    1
     4    14    15    1
     5    15    16   ar
     6    16    17   ar
     7    17    10    1
     8    10     9    1
     9     9     1    1
    10     1     2    1
    11     2     3    1
    12     3     4    1
    13     4     5   am
    14     5     6    2
    15     5    22    1
    16    22    23    1
    17    23    24   ar
    18    24    25   ar
    19    25    26   ar
    20    26    29    1
    21    29    30   ar
    22    30    31   ar
    23    31    32   ar
    24    32    33   ar
    25    26    27   ar
    26    27    28   ar
    27     4     7    1
    28     7     8    1
    29    17    18   ar
    30    18    19    1
    31    18    20   ar
    32    20    21   ar
    33    21    12    1
    34    21    15   ar
    35     8     1    1
    36    28    23   ar
    37    33    29   ar
@<TRIPOS>MOLECULE
*****
 33 37 0 0 0
SMALL
GASTEIGER

@<TRIPOS>ATOM
      1 N         139.8254  141.9944  160.9129 N.3     1  UNL1       -0.2695
      2 C         138.9520  141.8878  162.1276 C.3     1  UNL1        0.0939
      3 C         138.9301  140.6185  162.9266 C.3     1  UNL1        0.1107
      4 N         139.7816  139.4557  162.5107 N.am    1  UNL1       -0.2764
      5 C         139.7597  138.1864  163.3096 C.2     1  UNL1        0.2301
      6 O         140.6112  137.0237  162.8938 O.2     1  UNL1       -0.2745
      7 C         140.6550  139.5624  161.2959 C.3     1  UNL1        0.1107
      8 C         140.6769  140.8317  160.4970 C.3     1  UNL1        0.0939
      9 C         139.8474  143.2638  160.1139 C.3     1  UNL1        0.0770
     10 C         140.9174  144.2859  160.3590 C.3     1  UNL1        0.0459
     11 O         144.9848  144.0165  166.1914 O.2     1  UNL1       -0.2449
     12 C         144.8038  143.4402  164.8183 C.2     1  UNL1        0.3414
     13 O         145.6673  142.3922  164.1811 O.3     1  UNL1       -0.4404
     14 C         145.1247  142.1151  162.8104 C.3     1  UNL1        0.2356
     15 C         143.9258  142.9918  162.6005 C.ar    1  UNL1        0.0273
     16 C         142.9891  143.1502  161.4397 C.ar    1  UNL1       -0.0025
     17 C         141.8541  144.1275  161.5199 C.ar    1  UNL1        0.0065
     18 C         141.6558  144.9465  162.7608 C.ar    1  UNL1        0.1364
     19 F         140.5207  145.9239  162.8409 F       1  UNL1       -0.2045
     20 C         142.5925  144.7881  163.9216 C.ar    1  UNL1        0.0355
     21 C         143.7275  143.8107  163.8415 C.ar    1  UNL1        0.0774
     22 C         138.8862  138.0799  164.5245 C.3     1  UNL1        0.1116
     23 C         139.2858  138.7646  165.7978 C.ar    1  UNL1       -0.0130
     24 C         140.7002  139.2258  165.9895 C.ar    1  UNL1       -0.0022
     25 C         141.0998  139.9105  167.2628 C.ar    1  UNL1        0.0190
     26 C         140.0849  140.1342  168.3445 C.ar    1  UNL1        0.0862
     27 C         138.6705  139.6731  168.1529 C.ar    1  UNL1        0.0190
     28 C         138.2709  138.9883  166.8796 C.ar    1  UNL1       -0.0022
     29 N         140.4846  140.8189  169.6179 N.ar    1  UNL1       -0.1886
     30 C         141.8679  140.8682  170.1958 C.ar    1  UNL1        0.2258
     31 N         141.8094  141.6544  171.4719 N.ar    1  UNL1       -0.1045
     32 N         140.3900  142.0910  171.6827 N.ar    1  UNL1       -0.0222
     33 N         139.5712  141.5746  170.5369 N.ar    1  UNL1       -0.0385
@<TRIPOS>BOND
     1    11    12    2
     2    12    13    1
     3    13    14    1
     4    14    15    1
     5    15    16   ar
     6    16    17   ar
     7    17    10    1
     8    10     9    1
     9     9     1    1
    10     1     2    1
    11     2     3    1
    12     3     4    1
    13     4     5   am
    14     5     6    2
    15     5    22    1
    16    22    23    1
    17    23    24   ar
    18    24    25   ar
    19    25    26   ar
    20    26    29    1
    21    29    30   ar
    22    30    31   ar
    23    31    32   ar
    24    32    33   ar
    25    26    27   ar
    26    27    28   ar
    27     4     7    1
    28     7     8    1
    29    17    18   ar
    30    18    19    1
    31    18    20   ar
    32    20    21   ar
    33    21    12    1
    34    21    15   ar
    35     8     1    1
    36    28    23   ar
    37    33    29   ar
@<TRIPOS>MOLECULE
*****
 33 37 0 0 0
SMALL
GASTEIGER

@<TRIPOS>ATOM
      1 N         138.6414  140.3418  159.9773 N.3     1  UNL1       -0.2695
      2 C         137.7725  140.3098  161.1995 C.3     1  UNL1        0.0939
      3 C         138.1313  139.4190  162.3519 C.3     1  UNL1        0.1107
      4 N         139.3592  138.5603  162.2819 N.am    1  UNL1       -0.2764
      5 C         139.7181  137.6696  163.4342 C.2     1  UNL1        0.2301
      6 O         140.9460  136.8108  163.3642 O.2     1  UNL1       -0.2745
      7 C         140.2282  138.5923  161.0597 C.3     1  UNL1        0.1107
      8 C         139.8693  139.4830  159.9074 C.3     1  UNL1        0.0939
      9 C         138.2825  141.2325  158.8250 C.3     1  UNL1        0.0770
     10 C         138.6166  142.6939  158.8743 C.3     1  UNL1        0.0459
     11 O         144.2889  144.8277  162.6032 O.2     1  UNL1       -0.2449
     12 C         142.7941  144.7096  162.6414 C.2     1  UNL1        0.3414
     13 O         141.9057  145.1236  163.7769 O.3     1  UNL1       -0.4404
     14 C         140.4877  144.8266  163.3881 C.3     1  UNL1        0.2356
     15 C         140.4997  144.2291  162.0123 C.ar    1  UNL1        0.0273
     16 C         139.3969  143.7415  161.1201 C.ar    1  UNL1       -0.0025
     17 C         139.7195  143.1815  159.7665 C.ar    1  UNL1        0.0065
     18 C         141.1448  143.1092  159.3050 C.ar    1  UNL1        0.1364
     19 F         141.4675  142.5492  157.9513 F       1  UNL1       -0.2045
     20 C         142.2478  143.5968  160.1972 C.ar    1  UNL1        0.0355
     21 C         141.9251  144.1567  161.5508 C.ar    1  UNL1        0.0774
     22 C         138.8491  137.6376  164.6564 C.3     1  UNL1        0.1116
     23 C         139.1578  138.5328  165.8197 C.ar    1  UNL1       -0.0130
     24 C         140.4739  139.2494  165.8861 C.ar    1  UNL1       -0.0022
     25 C         140.7827  140.1445  167.0494 C.ar    1  UNL1        0.0190
     26 C         139.7754  140.3231  168.1464 C.ar    1  UNL1        0.0862
     27 C         138.4593  139.6066  168.0802 C.ar    1  UNL1        0.0190
     28 C         138.1505  138.7114  166.9168 C.ar    1  UNL1       -0.0022
     29 N         140.0842  141.2183  169.3097 N.ar    1  UNL1       -0.1886
     30 C         140.4564  142.6693  169.2312 C.ar    1  UNL1        0.2258
     31 N         140.6773  143.1675  170.6287 N.ar    1  UNL1       -0.1045
     32 N         140.4417  142.0244  171.5709 N.ar    1  UNL1       -0.0222
     33 N         140.0751  140.8198  170.7558 N.ar    1  UNL1       -0.0385
@<TRIPOS>BOND
     1    11    12    2
     2    12    13    1
     3    13    14    1
     4    14    15    1
     5    15    16   ar
     6    16    17   ar
     7    17    10    1
     8    10     9    1
     9     9     1    1
    10     1     2    1
    11     2     3    1
    12     3     4    1
    13     4     5   am
    14     5     6    2
    15     5    22    1
    16    22    23    1
    17    23    24   ar
    18    24    25   ar
    19    25    26   ar
    20    26    29    1
    21    29    30   ar
    22    30    31   ar
    23    31    32   ar
    24    32    33   ar
    25    26    27   ar
    26    27    28   ar
    27     4     7    1
    28     7     8    1
    29    17    18   ar
    30    18    19    1
    31    18    20   ar
    32    20    21   ar
    33    21    12    1
    34    21    15   ar
    35     8     1    1
    36    28    23   ar
    37    33    29   ar
@<TRIPOS>MOLECULE
*****
 33 37 0 0 0
SMALL
GASTEIGER

@<TRIPOS>ATOM
      1 N         142.2015  142.0202  159.7306 N.3     1  UNL1       -0.2695
      2 C         141.8789  140.8001  160.5411 C.3     1  UNL1        0.0939
      3 C         142.7799  140.3880  161.6674 C.3     1  UNL1        0.1107
      4 N         144.0035  141.1962  161.9831 N.am    1  UNL1       -0.2764
      5 C         144.9045  140.7842  163.1093 C.2     1  UNL1        0.2301
      6 O         146.1281  141.5924  163.4250 O.2     1  UNL1       -0.2745
      7 C         144.3261  142.4164  161.1725 C.3     1  UNL1        0.1107
      8 C         143.4251  142.8284  160.0463 C.3     1  UNL1        0.0939
      9 C         141.3005  142.4323  158.6043 C.3     1  UNL1        0.0770
     10 C         140.1379  143.3424  158.8684 C.3     1  UNL1        0.0459
     11 O         138.4281  145.1509  165.5347 O.2     1  UNL1       -0.2449
     12 C         138.2022  144.1210  164.4677 C.2     1  UNL1        0.3414
     13 O         137.3307  142.9058  164.5856 O.3     1  UNL1       -0.4404
     14 C         137.3981  142.1593  163.2863 C.3     1  UNL1        0.2356
     15 C         138.3113  142.9130  162.3654 C.ar    1  UNL1        0.0273
     16 C         138.7545  142.6521  160.9564 C.ar    1  UNL1       -0.0025
     17 C         139.6947  143.6035  160.2775 C.ar    1  UNL1        0.0065
     18 C         140.1916  144.8158  161.0077 C.ar    1  UNL1        0.1364
     19 F         141.1319  145.7673  160.3287 F       1  UNL1       -0.2045
     20 C         139.7484  145.0768  162.4168 C.ar    1  UNL1        0.0355
     21 C         138.8083  144.1254  163.0956 C.ar    1  UNL1        0.0774
     22 C         144.5819  139.5639  163.9198 C.3     1  UNL1        0.1116
     23 C         143.7030  139.6782  165.1300 C.ar    1  UNL1       -0.0130
     24 C         142.7397  140.8216  165.2520 C.ar    1  UNL1       -0.0022
     25 C         141.8608  140.9359  166.4621 C.ar    1  UNL1        0.0190
     26 C         141.9452  139.9069  167.5503 C.ar    1  UNL1        0.0862
     27 C         142.9084  138.7636  167.4283 C.ar    1  UNL1        0.0190
     28 C         143.7874  138.6492  166.2182 C.ar    1  UNL1       -0.0022
     29 N         141.0662  140.0213  168.7604 N.ar    1  UNL1       -0.1886
     30 C         141.5259  140.2999  170.1608 C.ar    1  UNL1        0.2258
     31 N         140.3171  140.3280  171.0485 N.ar    1  UNL1       -0.1045
     32 N         139.1104  140.0667  170.1968 N.ar    1  UNL1       -0.0222
     33 N         139.5734  139.8771  168.7827 N.ar    1  UNL1       -0.0385
@<TRIPOS>BOND
     1    11    12    2
     2    12    13    1
     3    13    14    1
     4    14    15    1
     5    15    16   ar
     6    16    17   ar
     7    17    10    1
     8    10     9    1
     9     9     1    1
    10     1     2    1
    11     2     3    1
    12     3     4    1
    13     4     5   am
    14     5     6    2
    15     5    22    1
    16    22    23    1
    17    23    24   ar
    18    24    25   ar
    19    25    26   ar
    20    26    29    1
    21    29    30   ar
    22    30    31   ar
    23    31    32   ar
    24    32    33   ar
    25    26    27   ar
    26    27    28   ar
    27     4     7    1
    28     7     8    1
    29    17    18   ar
    30    18    19    1
    31    18    20   ar
    32    20    21   ar
    33    21    12    1
    34    21    15   ar
    35     8     1    1
    36    28    23   ar
    37    33    29   ar
@<TRIPOS>MOLECULE
*****
 33 37 0 0 0
SMALL
GASTEIGER

@<TRIPOS>ATOM
      1 N         141.9646  138.7218  160.1379 N.3     1  UNL1       -0.2695
      2 C         141.4877  138.0733  161.4036 C.3     1  UNL1        0.0939
      3 C         142.2242  138.3065  162.6894 C.3     1  UNL1        0.1107
      4 N         143.4375  139.1882  162.7094 N.am    1  UNL1       -0.2764
      5 C         144.1740  139.4214  163.9952 C.2     1  UNL1        0.2301
      6 O         145.3874  140.3030  164.0152 O.2     1  UNL1       -0.2745
      7 C         143.9144  139.8366  161.4437 C.3     1  UNL1        0.1107
      8 C         143.1779  139.6034  160.1579 C.3     1  UNL1        0.0939
      9 C         141.2281  138.4886  158.8521 C.3     1  UNL1        0.0770
     10 C         140.2172  139.4886  158.3748 C.3     1  UNL1        0.0459
     11 O         137.9402  144.8153  162.5070 O.2     1  UNL1       -0.2449
     12 C         137.8833  143.3289  162.3131 C.2     1  UNL1        0.3414
     13 O         137.1335  142.3556  163.1735 O.3     1  UNL1       -0.4404
     14 C         137.3530  140.9801  162.6169 C.3     1  UNL1        0.2356
     15 C         138.2386  141.1033  161.4125 C.ar    1  UNL1        0.0273
     16 C         138.7889  140.0812  160.4625 C.ar    1  UNL1       -0.0025
     17 C         139.6669  140.5108  159.3248 C.ar    1  UNL1        0.0065
     18 C         139.9947  141.9624  159.1370 C.ar    1  UNL1        0.1364
     19 F         140.8728  142.3920  157.9992 F       1  UNL1       -0.2045
     20 C         139.4444  142.9846  160.0870 C.ar    1  UNL1        0.0355
     21 C         138.5663  142.5550  161.2248 C.ar    1  UNL1        0.0774
     22 C         143.6971  138.7728  165.2609 C.3     1  UNL1        0.1116
     23 C         142.9870  139.5888  166.3002 C.ar    1  UNL1       -0.0130
     24 C         142.8632  139.0728  167.7032 C.ar    1  UNL1       -0.0022
     25 C         142.1531  139.8887  168.7424 C.ar    1  UNL1        0.0190
     26 C         141.5668  141.2206  168.3786 C.ar    1  UNL1        0.0862
     27 C         141.6905  141.7366  166.9757 C.ar    1  UNL1        0.0190
     28 C         142.4006  140.9207  165.9364 C.ar    1  UNL1       -0.0022
     29 N         140.8567  142.0365  169.4180 N.ar    1  UNL1       -0.1886
     30 C         140.5525  143.5028  169.3315 C.ar    1  UNL1        0.2258
     31 N         139.8340  143.9019  170.5862 N.ar    1  UNL1       -0.1045
     32 N         139.6941  142.6823  171.4482 N.ar    1  UNL1       -0.0222
     33 N         140.3261  141.5295  170.7262 N.ar    1  UNL1       -0.0385
@<TRIPOS>BOND
     1    11    12    2
     2    12    13    1
     3    13    14    1
     4    14    15    1
     5    15    16   ar
     6    16    17   ar
     7    17    10    1
     8    10     9    1
     9     9     1    1
    10     1     2    1
    11     2     3    1
    12     3     4    1
    13     4     5   am
    14     5     6    2
    15     5    22    1
    16    22    23    1
    17    23    24   ar
    18    24    25   ar
    19    25    26   ar
    20    26    29    1
    21    29    30   ar
    22    30    31   ar
    23    31    32   ar
    24    32    33   ar
    25    26    27   ar
    26    27    28   ar
    27     4     7    1
    28     7     8    1
    29    17    18   ar
    30    18    19    1
    31    18    20   ar
    32    20    21   ar
    33    21    12    1
    34    21    15   ar
    35     8     1    1
    36    28    23   ar
    37    33    29   ar
@<TRIPOS>MOLECULE
*****
 33 37 0 0 0
SMALL
GASTEIGER

@<TRIPOS>ATOM
      1 N         143.1468  139.8216  160.1177 N.3     1  UNL1       -0.2695
      2 C         143.7191  139.6136  161.4884 C.3     1  UNL1        0.0939
      3 C         142.8732  139.0114  162.5710 C.3     1  UNL1        0.1107
      4 N         141.4549  138.6171  162.2826 N.am    1  UNL1       -0.2764
      5 C         140.6090  138.0149  163.3650 C.2     1  UNL1        0.2301
      6 O         139.1908  137.6207  163.0767 O.2     1  UNL1       -0.2745
      7 C         140.8826  138.8251  160.9117 C.3     1  UNL1        0.1107
      8 C         141.7285  139.4274  159.8293 C.3     1  UNL1        0.0939
      9 C         143.9927  140.4239  159.0351 C.3     1  UNL1        0.0770
     10 C         144.2208  141.9059  158.9986 C.3     1  UNL1        0.0459
     11 O         139.2191  146.3133  161.4868 O.2     1  UNL1       -0.2449
     12 C         140.4720  145.5767  161.8581 C.2     1  UNL1        0.3414
     13 O         141.1454  145.6022  163.1981 O.3     1  UNL1       -0.4404
     14 C         142.3611  144.7266  163.1228 C.3     1  UNL1        0.2356
     15 C         142.4389  144.1600  161.7361 C.ar    1  UNL1        0.0273
     16 C         143.4220  143.2335  161.0841 C.ar    1  UNL1       -0.0025
     17 C         143.2376  142.8324  159.6506 C.ar    1  UNL1        0.0065
     18 C         142.0702  143.3578  158.8690 C.ar    1  UNL1        0.1364
     19 F         141.8858  142.9566  157.4354 F       1  UNL1       -0.2045
     20 C         141.0870  144.2843  159.5209 C.ar    1  UNL1        0.0355
     21 C         141.2714  144.6854  160.9545 C.ar    1  UNL1        0.0774
     22 C         141.1814  137.8069  164.7359 C.3     1  UNL1        0.1116
     23 C         140.9292  138.8176  165.8152 C.ar    1  UNL1       -0.0130
     24 C         142.0815  139.5257  166.4638 C.ar    1  UNL1       -0.0022
     25 C         141.8292  140.5364  167.5431 C.ar    1  UNL1        0.0190
     26 C         140.4246  140.8390  167.9737 C.ar    1  UNL1        0.0862
     27 C         139.2722  140.1311  167.3251 C.ar    1  UNL1        0.0190
     28 C         139.5245  139.1203  166.2458 C.ar    1  UNL1       -0.0022
     29 N         140.1724  141.8498  169.0530 N.ar    1  UNL1       -0.1886
     30 C         140.5690  143.2960  169.0167 C.ar    1  UNL1        0.2258
     31 N         140.1211  143.9318  170.2993 N.ar    1  UNL1       -0.1045
     32 N         139.4476  142.8786  171.1283 N.ar    1  UNL1       -0.0222
     33 N         139.4794  141.5919  170.3580 N.ar    1  UNL1       -0.0385
@<TRIPOS>BOND
     1    11    12    2
     2    12    13    1
     3    13    14    1
     4    14    15    1
     5    15    16   ar
     6    16    17   ar
     7    17    10    1
     8    10     9    1
     9     9     1    1
    10     1     2    1
    11     2     3    1
    12     3     4    1
    13     4     5   am
    14     5     6    2
    15     5    22    1
    16    22    23    1
    17    23    24   ar
    18    24    25   ar
    19    25    26   ar
    20    26    29    1
    21    29    30   ar
    22    30    31   ar
    23    31    32   ar
    24    32    33   ar
    25    26    27   ar
    26    27    28   ar
    27     4     7    1
    28     7     8    1
    29    17    18   ar
    30    18    19    1
    31    18    20   ar
    32    20    21   ar
    33    21    12    1
    34    21    15   ar
    35     8     1    1
    36    28    23   ar
    37    33    29   ar
@<TRIPOS>MOLECULE
*****
 33 37 0 0 0
SMALL
GASTEIGER

@<TRIPOS>ATOM
      1 N         140.7029  141.6509  159.0435 N.3     1  UNL1       -0.2695
      2 C         140.0972  140.7452  160.0743 C.3     1  UNL1        0.0939
      3 C         139.2564  141.3192  161.1760 C.3     1  UNL1        0.1107
      4 N         139.0214  142.7990  161.2468 N.am    1  UNL1       -0.2764
      5 C         138.1807  143.3730  162.3484 C.2     1  UNL1        0.2301
      6 O         137.9457  144.8528  162.4192 O.2     1  UNL1       -0.2745
      7 C         139.6271  143.7047  160.2159 C.3     1  UNL1        0.1107
      8 C         140.4679  143.1307  159.1142 C.3     1  UNL1        0.0939
      9 C         141.5436  141.0769  157.9417 C.3     1  UNL1        0.0770
     10 C         143.0004  140.8053  158.1738 C.3     1  UNL1        0.0459
     11 O         145.3029  139.1357  164.6963 O.2     1  UNL1       -0.2449
     12 C         145.0831  140.2783  163.7496 C.2     1  UNL1        0.3414
     13 O         145.3742  141.7231  164.0286 O.3     1  UNL1       -0.4404
     14 C         145.0046  142.5143  162.8091 C.3     1  UNL1        0.2356
     15 C         144.4850  141.5586  161.7763 C.ar    1  UNL1        0.0273
     16 C         143.9739  141.7681  160.3817 C.ar    1  UNL1       -0.0025
     17 C         143.5114  140.5957  159.5684 C.ar    1  UNL1        0.0065
     18 C         143.5600  139.2138  160.1496 C.ar    1  UNL1        0.1364
     19 F         143.0974  138.0413  159.3363 F       1  UNL1       -0.2045
     20 C         144.0710  139.0042  161.5443 C.ar    1  UNL1        0.0355
     21 C         144.5335  140.1766  162.3576 C.ar    1  UNL1        0.0774
     22 C         137.5750  142.4672  163.3793 C.3     1  UNL1        0.1116
     23 C         138.4153  141.9482  164.5083 C.ar    1  UNL1       -0.0130
     24 C         138.2285  140.5427  164.9978 C.ar    1  UNL1       -0.0022
     25 C         139.0688  140.0238  166.1268 C.ar    1  UNL1        0.0190
     26 C         140.0960  140.9104  166.7662 C.ar    1  UNL1        0.0862
     27 C         140.2829  142.3159  166.2768 C.ar    1  UNL1        0.0190
     28 C         139.4426  142.8349  165.1478 C.ar    1  UNL1       -0.0022
     29 N         140.9363  140.3914  167.8952 N.ar    1  UNL1       -0.1886
     30 C         140.4332  139.9458  169.2363 C.ar    1  UNL1        0.2258
     31 N         141.6131  139.5059  170.0513 N.ar    1  UNL1       -0.1045
     32 N         142.8455  139.6796  169.2140 N.ar    1  UNL1       -0.0222
     33 N         142.4272  140.2269  167.8815 N.ar    1  UNL1       -0.0385
@<TRIPOS>BOND
     1    11    12    2
     2    12    13    1
     3    13    14    1
     4    14    15    1
     5    15    16   ar
     6    16    17   ar
     7    17    10    1
     8    10     9    1
     9     9     1    1
    10     1     2    1
    11     2     3    1
    12     3     4    1
    13     4     5   am
    14     5     6    2
    15     5    22    1
    16    22    23    1
    17    23    24   ar
    18    24    25   ar
    19    25    26   ar
    20    26    29    1
    21    29    30   ar
    22    30    31   ar
    23    31    32   ar
    24    32    33   ar
    25    26    27   ar
    26    27    28   ar
    27     4     7    1
    28     7     8    1
    29    17    18   ar
    30    18    19    1
    31    18    20   ar
    32    20    21   ar
    33    21    12    1
    34    21    15   ar
    35     8     1    1
    36    28    23   ar
    37    33    29   ar
