@<TRIPOS>MOLECULE
*****
 30 34 0 0 0
SMALL
GASTEIGER

@<TRIPOS>ATOM
      1 C         138.6573  137.8670  165.2568 C.3     1  UNL1        0.0294
      2 C         138.3055  138.5105  163.9483 C.3     1  UNL1        0.0666
      3 S         139.0082  138.0885  162.6920 S.3     1  UNL1       -0.0756
      4 C         142.6446  139.3995  162.3411 C.ar    1  UNL1        0.2029
      5 N         142.8665  137.9164  162.3058 N.ar    1  UNL1       -0.1250
      6 N         141.5313  137.2448  162.4329 N.ar    1  UNL1       -0.1220
      7 C         140.4842  138.3128  162.5468 C.ar    1  UNL1        0.1933
      8 N         141.1723  139.6444  162.4901 N.ar    1  UNL1       -0.2860
      9 C         140.5051  140.9856  162.5686 C.3     1  UNL1        0.1341
     10 C         145.2105  139.7227  164.3315 C.3     1  UNL1        0.0556
     11 C         144.8877  140.6012  163.1593 C.ar    1  UNL1        0.1001
     12 N         145.6877  141.7825  162.6961 N.ar    1  UNL1       -0.2085
     13 C         145.0027  142.3640  161.4950 C.ar    1  UNL1        0.2849
     14 O         143.7795  141.5422  161.2159 O.2     1  UNL1       -0.4283
     15 C         143.7084  140.4527  162.2444 C.ar    1  UNL1        0.1964
     16 C         138.2392  138.5107  166.5455 C.3     1  UNL1        0.0730
     17 N         139.0161  139.6725  167.0902 N.3     1  UNL1       -0.2724
     18 C         139.1947  140.0114  168.5405 C.3     1  UNL1        0.0724
     19 C         140.0398  141.2477  168.6270 C.3     1  UNL1        0.0215
     20 C         140.8844  142.4664  168.4003 C.3     1  UNL1        0.0073
     21 C         140.3835  141.6728  167.2301 C.3     1  UNL1        0.0371
     22 C         139.7508  140.6993  166.2804 C.3     1  UNL1        0.0762
     23 C         141.0135  142.5337  166.1756 C.ar    1  UNL1        0.0061
     24 C         140.1837  143.5399  165.4346 C.ar    1  UNL1       -0.0012
     25 C         140.8137  144.4009  164.3800 C.ar    1  UNL1        0.0112
     26 C         142.2734  144.2556  164.0666 C.ar    1  UNL1        0.0599
     27 CL        142.9033  145.1165  163.0121 Cl      1  UNL1       -0.0822
     28 C         143.1031  143.2494  164.8077 C.ar    1  UNL1        0.0407
     29 C         142.4732  142.3885  165.8622 C.ar    1  UNL1        0.1370
     30 F         143.3029  141.3823  166.6033 F       1  UNL1       -0.2045
@<TRIPOS>BOND
     1    10    11    1
     2    11    12   ar
     3    12    13   ar
     4    13    14   ar
     5    14    15   ar
     6    15     4    1
     7     4     5   ar
     8     5     6   ar
     9     6     7   ar
    10     7     3    1
    11     3     2    1
    12     2     1    1
    13     1    16    1
    14    16    17    1
    15    17    18    1
    16    18    19    1
    17    19    20    1
    18    20    21    1
    19    21    23    1
    20    23    24   ar
    21    24    25   ar
    22    25    26   ar
    23    26    27    1
    24    26    28   ar
    25    28    29   ar
    26    29    30    1
    27    21    22    1
    28     7     8   ar
    29     8     9    1
    30    15    11   ar
    31     8     4   ar
    32    22    17    1
    33    21    19    1
    34    29    23   ar
@<TRIPOS>MOLECULE
*****
 30 34 0 0 0
SMALL
GASTEIGER

@<TRIPOS>ATOM
      1 C         141.0277  144.2108  161.2302 C.3     1  UNL1        0.0294
      2 C         140.2999  145.2608  162.0162 C.3     1  UNL1        0.0666
      3 S         139.0136  144.9216  162.7095 S.3     1  UNL1       -0.0756
      4 C         138.2392  141.2121  163.5492 C.ar    1  UNL1        0.2029
      5 N         137.4738  141.3859  162.2709 N.ar    1  UNL1       -0.1250
      6 N         137.6707  142.7965  161.8008 N.ar    1  UNL1       -0.1220
      7 C         138.5578  143.4947  162.7885 C.ar    1  UNL1        0.1933
      8 N         138.9091  142.5154  163.8691 N.ar    1  UNL1       -0.2860
      9 C         139.7779  142.7912  165.0604 C.3     1  UNL1        0.1341
     10 C         139.2417  138.2952  162.4833 C.3     1  UNL1        0.0556
     11 C         138.7811  138.6149  163.8746 C.ar    1  UNL1        0.1001
     12 N         138.7004  137.6499  165.0201 N.ar    1  UNL1       -0.2085
     13 C         138.1897  138.3943  166.2181 C.ar    1  UNL1        0.2849
     14 O         137.9548  139.8192  165.8129 O.2     1  UNL1       -0.4283
     15 C         138.3203  139.9556  164.3645 C.ar    1  UNL1        0.1964
     16 C         142.5270  144.2114  161.1864 C.3     1  UNL1        0.0730
     17 N         143.3019  143.2292  162.0139 N.3     1  UNL1       -0.2724
     18 C         144.6715  142.7020  161.7037 C.3     1  UNL1        0.0724
     19 C         145.0594  141.7486  162.7949 C.3     1  UNL1        0.0215
     20 C         145.1655  140.8669  164.0038 C.3     1  UNL1        0.0073
     21 C         143.9294  141.6866  163.7795 C.3     1  UNL1        0.0371
     22 C         142.8433  142.6016  163.2967 C.3     1  UNL1        0.0762
     23 C         143.2124  141.2304  165.0155 C.ar    1  UNL1        0.0061
     24 C         143.2828  142.0507  166.2693 C.ar    1  UNL1       -0.0012
     25 C         142.5657  141.5945  167.5053 C.ar    1  UNL1        0.0112
     26 C         141.7782  140.3180  167.4875 C.ar    1  UNL1        0.0599
     27 CL        141.0611  139.8618  168.7235 Cl      1  UNL1       -0.0822
     28 C         141.7078  139.4976  166.2336 C.ar    1  UNL1        0.0407
     29 C         142.4248  139.9538  164.9976 C.ar    1  UNL1        0.1370
     30 F         142.3544  139.1335  163.7438 F       1  UNL1       -0.2045
@<TRIPOS>BOND
     1    10    11    1
     2    11    12   ar
     3    12    13   ar
     4    13    14   ar
     5    14    15   ar
     6    15     4    1
     7     4     5   ar
     8     5     6   ar
     9     6     7   ar
    10     7     3    1
    11     3     2    1
    12     2     1    1
    13     1    16    1
    14    16    17    1
    15    17    18    1
    16    18    19    1
    17    19    20    1
    18    20    21    1
    19    21    23    1
    20    23    24   ar
    21    24    25   ar
    22    25    26   ar
    23    26    27    1
    24    26    28   ar
    25    28    29   ar
    26    29    30    1
    27    21    22    1
    28     7     8   ar
    29     8     9    1
    30    15    11   ar
    31     8     4   ar
    32    22    17    1
    33    21    19    1
    34    29    23   ar
@<TRIPOS>MOLECULE
*****
 30 34 0 0 0
SMALL
GASTEIGER

@<TRIPOS>ATOM
      1 C         140.8333  141.1013  160.3349 C.3     1  UNL1        0.0294
      2 C         141.2167  139.7046  159.9449 C.3     1  UNL1        0.0666
      3 S         140.3493  138.5487  160.3472 S.3     1  UNL1       -0.0756
      4 C         139.5635  137.8334  164.0803 C.ar    1  UNL1        0.2029
      5 N         140.8462  137.0760  163.9038 N.ar    1  UNL1       -0.1250
      6 N         141.2966  137.2517  162.4840 N.ar    1  UNL1       -0.1220
      7 C         140.2924  138.1178  161.7829 C.ar    1  UNL1        0.1933
      8 N         139.2213  138.4773  162.7695 N.ar    1  UNL1       -0.2860
      9 C         138.0191  139.3308  162.4937 C.3     1  UNL1        0.1341
     10 C         139.3622  140.4442  166.0279 C.3     1  UNL1        0.0556
     11 C         138.6710  139.1300  166.2407 C.ar    1  UNL1        0.1001
     12 N         137.7660  138.7852  167.3861 N.ar    1  UNL1       -0.2085
     13 C         137.2992  137.3720  167.1988 C.ar    1  UNL1        0.2849
     14 O         137.9157  136.8435  165.9377 O.2     1  UNL1       -0.4283
     15 C         138.7636  137.9300  165.3456 C.ar    1  UNL1        0.1964
     16 C         141.8949  142.1410  160.5399 C.3     1  UNL1        0.0730
     17 N         142.9770  141.9180  161.5545 N.3     1  UNL1       -0.2724
     18 C         144.4470  142.1201  161.3346 C.3     1  UNL1        0.0724
     19 C         145.1576  141.7809  162.6113 C.3     1  UNL1        0.0215
     20 C         145.5793  141.3819  163.9944 C.3     1  UNL1        0.0073
     21 C         144.1268  141.3690  163.6202 C.3     1  UNL1        0.0371
     22 C         142.7792  141.4538  162.9670 C.3     1  UNL1        0.0762
     23 C         143.6253  140.9022  164.9545 C.ar    1  UNL1        0.0061
     24 C         143.2933  141.9017  166.0226 C.ar    1  UNL1       -0.0012
     25 C         142.7917  141.4349  167.3570 C.ar    1  UNL1        0.0112
     26 C         142.6222  139.9684  167.6233 C.ar    1  UNL1        0.0599
     27 CL        142.1207  139.5016  168.9576 Cl      1  UNL1       -0.0822
     28 C         142.9542  138.9689  166.5552 C.ar    1  UNL1        0.0407
     29 C         143.4557  139.4358  165.2209 C.ar    1  UNL1        0.1370
     30 F         143.7877  138.4362  164.1528 F       1  UNL1       -0.2045
@<TRIPOS>BOND
     1    10    11    1
     2    11    12   ar
     3    12    13   ar
     4    13    14   ar
     5    14    15   ar
     6    15     4    1
     7     4     5   ar
     8     5     6   ar
     9     6     7   ar
    10     7     3    1
    11     3     2    1
    12     2     1    1
    13     1    16    1
    14    16    17    1
    15    17    18    1
    16    18    19    1
    17    19    20    1
    18    20    21    1
    19    21    23    1
    20    23    24   ar
    21    24    25   ar
    22    25    26   ar
    23    26    27    1
    24    26    28   ar
    25    28    29   ar
    26    29    30    1
    27    21    22    1
    28     7     8   ar
    29     8     9    1
    30    15    11   ar
    31     8     4   ar
    32    22    17    1
    33    21    19    1
    34    29    23   ar
@<TRIPOS>MOLECULE
*****
 30 34 0 0 0
SMALL
GASTEIGER

@<TRIPOS>ATOM
      1 C         137.8049  139.2857  162.0521 C.3     1  UNL1        0.0294
      2 C         137.5985  139.5497  160.5900 C.3     1  UNL1        0.0666
      3 S         138.6180  140.3341  159.8183 S.3     1  UNL1       -0.0756
      4 C         140.4385  143.3471  161.4530 C.ar    1  UNL1        0.2029
      5 N         139.2508  144.0255  160.8373 N.ar    1  UNL1       -0.1250
      6 N         138.4243  142.9794  160.1500 N.ar    1  UNL1       -0.1220
      7 C         139.1012  141.6545  160.3410 C.ar    1  UNL1        0.1933
      8 N         140.3461  141.8818  161.1463 N.ar    1  UNL1       -0.2860
      9 C         141.3264  140.8286  161.5703 C.3     1  UNL1        0.1341
     10 C         140.1084  144.7501  164.3809 C.3     1  UNL1        0.0556
     11 C         141.3759  144.6615  163.5835 C.ar    1  UNL1        0.1001
     12 N         142.7140  145.2023  163.9919 N.ar    1  UNL1       -0.2085
     13 C         143.6928  144.8916  162.8986 C.ar    1  UNL1        0.2849
     14 O         142.9596  144.1589  161.8145 O.2     1  UNL1       -0.4283
     15 C         141.5276  144.0167  162.2378 C.ar    1  UNL1        0.1964
     16 C         138.5591  138.0672  162.4951 C.3     1  UNL1        0.0730
     17 N         139.6912  138.1992  163.4703 N.3     1  UNL1       -0.2724
     18 C         140.9156  137.3343  163.5222 C.3     1  UNL1        0.0724
     19 C         141.7788  137.8199  164.6488 C.3     1  UNL1        0.0215
     20 C         142.4137  138.5168  165.8155 C.3     1  UNL1        0.0073
     21 C         141.0879  138.9850  165.2931 C.3     1  UNL1        0.0371
     22 C         139.7977  139.2194  164.5647 C.3     1  UNL1        0.0762
     23 C         140.9172  140.1031  166.2784 C.ar    1  UNL1        0.0061
     24 C         140.1430  139.8766  167.5430 C.ar    1  UNL1       -0.0012
     25 C         139.9722  140.9947  168.5283 C.ar    1  UNL1        0.0112
     26 C         140.5757  142.3393  168.2489 C.ar    1  UNL1        0.0599
     27 CL        140.4050  143.4573  169.2342 Cl      1  UNL1       -0.0822
     28 C         141.3499  142.5657  166.9842 C.ar    1  UNL1        0.0407
     29 C         141.5206  141.4476  165.9989 C.ar    1  UNL1        0.1370
     30 F         142.2948  141.6741  164.7343 F       1  UNL1       -0.2045
@<TRIPOS>BOND
     1    10    11    1
     2    11    12   ar
     3    12    13   ar
     4    13    14   ar
     5    14    15   ar
     6    15     4    1
     7     4     5   ar
     8     5     6   ar
     9     6     7   ar
    10     7     3    1
    11     3     2    1
    12     2     1    1
    13     1    16    1
    14    16    17    1
    15    17    18    1
    16    18    19    1
    17    19    20    1
    18    20    21    1
    19    21    23    1
    20    23    24   ar
    21    24    25   ar
    22    25    26   ar
    23    26    27    1
    24    26    28   ar
    25    28    29   ar
    26    29    30    1
    27    21    22    1
    28     7     8   ar
    29     8     9    1
    30    15    11   ar
    31     8     4   ar
    32    22    17    1
    33    21    19    1
    34    29    23   ar
@<TRIPOS>MOLECULE
*****
 30 34 0 0 0
SMALL
GASTEIGER

@<TRIPOS>ATOM
      1 C         140.4307  145.6269  161.8761 C.3     1  UNL1        0.0294
      2 C         140.8016  144.7617  160.7082 C.3     1  UNL1        0.0666
      3 S         139.8411  143.7231  160.2093 S.3     1  UNL1       -0.0756
      4 C         138.6572  141.0845  162.7979 C.ar    1  UNL1        0.2029
      5 N         137.3888  141.8501  162.5636 N.ar    1  UNL1       -0.1250
      6 N         137.6779  142.9317  161.5655 N.ar    1  UNL1       -0.1220
      7 C         139.1250  142.8346  161.1828 C.ar    1  UNL1        0.1933
      8 N         139.7302  141.6929  161.9446 N.ar    1  UNL1       -0.2860
      9 C         141.1579  141.2393  161.8665 C.3     1  UNL1        0.1341
     10 C         139.3629  141.2422  165.9802 C.3     1  UNL1        0.0556
     11 C         139.1477  139.9881  165.1859 C.ar    1  UNL1        0.1001
     12 N         139.2191  138.5863  165.7149 N.ar    1  UNL1       -0.2085
     13 C         138.9389  137.6474  164.5791 C.ar    1  UNL1        0.2849
     14 O         138.6943  138.4689  163.3482 O.2     1  UNL1       -0.4283
     15 C         138.8233  139.9156  163.7232 C.ar    1  UNL1        0.1964
     16 C         140.4864  145.0718  163.2684 C.3     1  UNL1        0.0730
     17 N         141.7533  144.4514  163.7783 N.3     1  UNL1       -0.2724
     18 C         143.1422  144.7724  163.3117 C.3     1  UNL1        0.0724
     19 C         144.1011  143.9204  164.0894 C.3     1  UNL1        0.0215
     20 C         144.8001  142.9594  165.0046 C.3     1  UNL1        0.0073
     21 C         143.3047  143.0728  165.0367 C.3     1  UNL1        0.0371
     22 C         141.8537  143.4010  164.8445 C.3     1  UNL1        0.0762
     23 C         143.0925  142.0462  166.1095 C.ar    1  UNL1        0.0061
     24 C         143.0049  142.4695  167.5459 C.ar    1  UNL1       -0.0012
     25 C         142.7927  141.4429  168.6188 C.ar    1  UNL1        0.0112
     26 C         142.6681  139.9929  168.2552 C.ar    1  UNL1        0.0599
     27 CL        142.4559  138.9663  169.3281 Cl      1  UNL1       -0.0822
     28 C         142.7558  139.5696  166.8188 C.ar    1  UNL1        0.0407
     29 C         142.9680  140.5963  165.7460 C.ar    1  UNL1        0.1370
     30 F         143.0556  140.1729  164.3096 F       1  UNL1       -0.2045
@<TRIPOS>BOND
     1    10    11    1
     2    11    12   ar
     3    12    13   ar
     4    13    14   ar
     5    14    15   ar
     6    15     4    1
     7     4     5   ar
     8     5     6   ar
     9     6     7   ar
    10     7     3    1
    11     3     2    1
    12     2     1    1
    13     1    16    1
    14    16    17    1
    15    17    18    1
    16    18    19    1
    17    19    20    1
    18    20    21    1
    19    21    23    1
    20    23    24   ar
    21    24    25   ar
    22    25    26   ar
    23    26    27    1
    24    26    28   ar
    25    28    29   ar
    26    29    30    1
    27    21    22    1
    28     7     8   ar
    29     8     9    1
    30    15    11   ar
    31     8     4   ar
    32    22    17    1
    33    21    19    1
    34    29    23   ar
@<TRIPOS>MOLECULE
*****
 30 34 0 0 0
SMALL
GASTEIGER

@<TRIPOS>ATOM
      1 C         144.2026  139.4983  163.2529 C.3     1  UNL1        0.0294
      2 C         145.2541  140.2766  163.9868 C.3     1  UNL1        0.0666
      3 S         145.6258  141.6547  163.5258 S.3     1  UNL1       -0.0756
      4 C         142.7676  144.1228  162.6292 C.ar    1  UNL1        0.2029
      5 N         143.1650  144.6206  163.9873 N.ar    1  UNL1       -0.1250
      6 N         144.2840  143.7567  164.4884 N.ar    1  UNL1       -0.1220
      7 C         144.5783  142.7249  163.4401 C.ar    1  UNL1        0.1933
      8 N         143.6410  142.9513  162.2910 N.ar    1  UNL1       -0.2860
      9 C         143.5868  142.1472  161.0259 C.3     1  UNL1        0.1341
     10 C         139.7308  144.8500  163.5773 C.3     1  UNL1        0.0556
     11 C         140.2907  145.0303  162.1974 C.ar    1  UNL1        0.1001
     12 N         139.5529  145.5765  161.0111 N.ar    1  UNL1       -0.2085
     13 C         140.4929  145.5799  159.8421 C.ar    1  UNL1        0.2849
     14 O         141.8114  145.0358  160.3059 O.2     1  UNL1       -0.4283
     15 C         141.6864  144.6961  161.7616 C.ar    1  UNL1        0.1964
     16 C         143.2211  138.6592  164.0161 C.3     1  UNL1        0.0730
     17 N         141.8820  139.2234  164.3883 N.3     1  UNL1       -0.2724
     18 C         140.6477  139.2002  163.5362 C.3     1  UNL1        0.0724
     19 C         139.5449  139.8722  164.2992 C.3     1  UNL1        0.0215
     20 C         138.6616  140.5801  165.2834 C.3     1  UNL1        0.0073
     21 C         140.0976  140.3108  165.6229 C.3     1  UNL1        0.0371
     22 C         141.5420  139.9098  165.6779 C.3     1  UNL1        0.0762
     23 C         140.0578  140.9410  166.9835 C.ar    1  UNL1        0.0061
     24 C         139.4977  140.1781  168.1472 C.ar    1  UNL1       -0.0012
     25 C         139.4579  140.8082  169.5079 C.ar    1  UNL1        0.0112
     26 C         139.9783  142.2012  169.7049 C.ar    1  UNL1        0.0599
     27 CL        139.9386  142.8314  171.0655 Cl      1  UNL1       -0.0822
     28 C         140.5385  142.9641  168.5410 C.ar    1  UNL1        0.0407
     29 C         140.5783  142.3340  167.1804 C.ar    1  UNL1        0.1370
     30 F         141.1384  143.0968  166.0167 F       1  UNL1       -0.2045
@<TRIPOS>BOND
     1    10    11    1
     2    11    12   ar
     3    12    13   ar
     4    13    14   ar
     5    14    15   ar
     6    15     4    1
     7     4     5   ar
     8     5     6   ar
     9     6     7   ar
    10     7     3    1
    11     3     2    1
    12     2     1    1
    13     1    16    1
    14    16    17    1
    15    17    18    1
    16    18    19    1
    17    19    20    1
    18    20    21    1
    19    21    23    1
    20    23    24   ar
    21    24    25   ar
    22    25    26   ar
    23    26    27    1
    24    26    28   ar
    25    28    29   ar
    26    29    30    1
    27    21    22    1
    28     7     8   ar
    29     8     9    1
    30    15    11   ar
    31     8     4   ar
    32    22    17    1
    33    21    19    1
    34    29    23   ar
@<TRIPOS>MOLECULE
*****
 30 34 0 0 0
SMALL
GASTEIGER

@<TRIPOS>ATOM
      1 C         143.9853  144.1004  164.5976 C.3     1  UNL1        0.0294
      2 C         143.4039  145.0723  163.6141 C.3     1  UNL1        0.0666
      3 S         141.9366  145.0384  163.3041 S.3     1  UNL1       -0.0756
      4 C         140.2364  141.5502  163.3884 C.ar    1  UNL1        0.2029
      5 N         139.6029  142.2103  164.5771 N.ar    1  UNL1       -0.1250
      6 N         140.1627  143.5972  164.6902 N.ar    1  UNL1       -0.1220
      7 C         141.1422  143.7944  163.5714 C.ar    1  UNL1        0.1933
      8 N         141.1877  142.5293  162.7669 N.ar    1  UNL1       -0.2860
      9 C         142.0358  142.2860  161.5537 C.3     1  UNL1        0.1341
     10 C         137.6701  140.5992  161.6111 C.3     1  UNL1        0.0556
     11 C         138.7865  139.7187  162.0891 C.ar    1  UNL1        0.1001
     12 N         138.9192  138.2466  161.8340 N.ar    1  UNL1       -0.2085
     13 C         140.1809  137.7739  162.4933 C.ar    1  UNL1        0.2849
     14 O         140.8279  138.9538  163.1558 O.2     1  UNL1       -0.4283
     15 C         139.9661  140.1558  162.9060 C.ar    1  UNL1        0.1964
     16 C         144.5950  142.8181  164.1139 C.3     1  UNL1        0.0730
     17 N         144.1565  141.5101  164.7028 N.3     1  UNL1       -0.2724
     18 C         144.7368  140.1630  164.3888 C.3     1  UNL1        0.0724
     19 C         143.9996  139.1399  165.2010 C.3     1  UNL1        0.0215
     20 C         143.1018  138.3645  166.1190 C.3     1  UNL1        0.0073
     21 C         142.9636  139.8546  166.0171 C.3     1  UNL1        0.0371
     22 C         143.0606  141.3195  165.7091 C.3     1  UNL1        0.0762
     23 C         141.8388  139.9756  167.0021 C.ar    1  UNL1        0.0061
     24 C         140.4456  139.5914  166.6004 C.ar    1  UNL1       -0.0012
     25 C         139.3208  139.7124  167.5854 C.ar    1  UNL1        0.0112
     26 C         139.5892  140.2174  168.9721 C.ar    1  UNL1        0.0599
     27 CL        138.4645  140.3383  169.9571 Cl      1  UNL1       -0.0822
     28 C         140.9825  140.6015  169.3738 C.ar    1  UNL1        0.0407
     29 C         142.1073  140.4806  168.3888 C.ar    1  UNL1        0.1370
     30 F         143.5005  140.8647  168.7905 F       1  UNL1       -0.2045
@<TRIPOS>BOND
     1    10    11    1
     2    11    12   ar
     3    12    13   ar
     4    13    14   ar
     5    14    15   ar
     6    15     4    1
     7     4     5   ar
     8     5     6   ar
     9     6     7   ar
    10     7     3    1
    11     3     2    1
    12     2     1    1
    13     1    16    1
    14    16    17    1
    15    17    18    1
    16    18    19    1
    17    19    20    1
    18    20    21    1
    19    21    23    1
    20    23    24   ar
    21    24    25   ar
    22    25    26   ar
    23    26    27    1
    24    26    28   ar
    25    28    29   ar
    26    29    30    1
    27    21    22    1
    28     7     8   ar
    29     8     9    1
    30    15    11   ar
    31     8     4   ar
    32    22    17    1
    33    21    19    1
    34    29    23   ar
@<TRIPOS>MOLECULE
*****
 30 34 0 0 0
SMALL
GASTEIGER

@<TRIPOS>ATOM
      1 C         143.4930  139.3057  161.4670 C.3     1  UNL1        0.0294
      2 C         144.4289  140.2013  162.2232 C.3     1  UNL1        0.0666
      3 S         144.8083  139.8682  163.6358 S.3     1  UNL1       -0.0756
      4 C         142.9472  140.9575  166.8630 C.ar    1  UNL1        0.2029
      5 N         143.1987  142.2849  166.2113 N.ar    1  UNL1       -0.1250
      6 N         143.9264  142.0384  164.9231 N.ar    1  UNL1       -0.1220
      7 C         144.1248  140.5587  164.7786 C.ar    1  UNL1        0.1933
      8 N         143.5196  139.8906  165.9776 N.ar    1  UNL1       -0.2860
      9 C         143.4917  138.4147  166.2441 C.3     1  UNL1        0.1341
     10 C         143.7867  142.2614  169.7344 C.3     1  UNL1        0.0556
     11 C         142.6323  141.3352  169.4904 C.ar    1  UNL1        0.1001
     12 N         141.6611  140.8457  170.5235 N.ar    1  UNL1       -0.2085
     13 C         140.6750  139.9439  169.8421 C.ar    1  UNL1        0.2849
     14 O         141.0368  139.8760  168.3880 O.2     1  UNL1       -0.4283
     15 C         142.2464  140.7359  168.1707 C.ar    1  UNL1        0.1964
     16 C         142.9574  138.0629  162.1139 C.3     1  UNL1        0.0730
     17 N         141.7516  138.1401  163.0028 N.3     1  UNL1       -0.2724
     18 C         141.1232  136.9934  163.7377 C.3     1  UNL1        0.0724
     19 C         139.9457  137.5221  164.5019 C.3     1  UNL1        0.0215
     20 C         138.8518  138.3257  165.1403 C.3     1  UNL1        0.0073
     21 C         139.8463  138.9956  164.2392 C.3     1  UNL1        0.0371
     22 C         140.9625  139.3775  163.3127 C.3     1  UNL1        0.0762
     23 C         139.2652  140.3730  164.3608 C.ar    1  UNL1        0.0061
     24 C         139.8558  141.3534  165.3303 C.ar    1  UNL1       -0.0012
     25 C         139.2747  142.7309  165.4519 C.ar    1  UNL1        0.0112
     26 C         138.1028  143.1280  164.6040 C.ar    1  UNL1        0.0599
     27 CL        137.5216  144.5055  164.7255 Cl      1  UNL1       -0.0822
     28 C         137.5121  142.1476  163.6344 C.ar    1  UNL1        0.0407
     29 C         138.0933  140.7702  163.5128 C.ar    1  UNL1        0.1370
     30 F         137.5026  139.7898  162.5433 F       1  UNL1       -0.2045
@<TRIPOS>BOND
     1    10    11    1
     2    11    12   ar
     3    12    13   ar
     4    13    14   ar
     5    14    15   ar
     6    15     4    1
     7     4     5   ar
     8     5     6   ar
     9     6     7   ar
    10     7     3    1
    11     3     2    1
    12     2     1    1
    13     1    16    1
    14    16    17    1
    15    17    18    1
    16    18    19    1
    17    19    20    1
    18    20    21    1
    19    21    23    1
    20    23    24   ar
    21    24    25   ar
    22    25    26   ar
    23    26    27    1
    24    26    28   ar
    25    28    29   ar
    26    29    30    1
    27    21    22    1
    28     7     8   ar
    29     8     9    1
    30    15    11   ar
    31     8     4   ar
    32    22    17    1
    33    21    19    1
    34    29    23   ar
@<TRIPOS>MOLECULE
*****
 30 34 0 0 0
SMALL
GASTEIGER

@<TRIPOS>ATOM
      1 C         145.1787  141.1827  163.0423 C.3     1  UNL1        0.0294
      2 C         145.3501  142.4906  162.3281 C.3     1  UNL1        0.0666
      3 S         144.3281  143.5758  162.4949 S.3     1  UNL1       -0.0756
      4 C         140.7309  142.5041  163.4831 C.ar    1  UNL1        0.2029
      5 N         141.2212  143.0958  164.7713 N.ar    1  UNL1       -0.1250
      6 N         142.6284  143.5692  164.5579 N.ar    1  UNL1       -0.1220
      7 C         143.0078  143.2702  163.1378 C.ar    1  UNL1        0.1933
      8 N         141.8350  142.6119  162.4736 N.ar    1  UNL1       -0.2860
      9 C         141.7767  142.1437  161.0497 C.3     1  UNL1        0.1341
     10 C         137.8983  144.1246  163.4852 C.3     1  UNL1        0.0556
     11 C         138.0725  142.6539  163.2470 C.ar    1  UNL1        0.1001
     12 N         136.9753  141.6699  162.9680 N.ar    1  UNL1       -0.2085
     13 C         137.5992  140.3169  162.7946 C.ar    1  UNL1        0.2849
     14 O         139.0819  140.4647  162.9664 O.2     1  UNL1       -0.4283
     15 C         139.3744  141.9091  163.2460 C.ar    1  UNL1        0.1964
     16 C         144.4756  140.0444  162.3642 C.3     1  UNL1        0.0730
     17 N         143.3749  139.3132  163.0739 N.3     1  UNL1       -0.2724
     18 C         142.6247  138.1248  162.5495 C.3     1  UNL1        0.0724
     19 C         141.6172  137.7192  163.5841 C.3     1  UNL1        0.0215
     20 C         140.7277  137.5548  164.7806 C.3     1  UNL1        0.0073
     21 C         141.7447  138.6569  164.7479 C.3     1  UNL1        0.0371
     22 C         142.8309  139.6420  164.4326 C.3     1  UNL1        0.0762
     23 C         141.4134  139.2161  166.0997 C.ar    1  UNL1        0.0061
     24 C         140.0749  139.8481  166.3424 C.ar    1  UNL1       -0.0012
     25 C         139.7435  140.4074  167.6943 C.ar    1  UNL1        0.0112
     26 C         140.7507  140.3346  168.8035 C.ar    1  UNL1        0.0599
     27 CL        140.4195  140.8938  170.1553 Cl      1  UNL1       -0.0822
     28 C         142.0893  139.7025  168.5607 C.ar    1  UNL1        0.0407
     29 C         142.4206  139.1433  167.2089 C.ar    1  UNL1        0.1370
     30 F         143.7591  138.5112  166.9662 F       1  UNL1       -0.2045
@<TRIPOS>BOND
     1    10    11    1
     2    11    12   ar
     3    12    13   ar
     4    13    14   ar
     5    14    15   ar
     6    15     4    1
     7     4     5   ar
     8     5     6   ar
     9     6     7   ar
    10     7     3    1
    11     3     2    1
    12     2     1    1
    13     1    16    1
    14    16    17    1
    15    17    18    1
    16    18    19    1
    17    19    20    1
    18    20    21    1
    19    21    23    1
    20    23    24   ar
    21    24    25   ar
    22    25    26   ar
    23    26    27    1
    24    26    28   ar
    25    28    29   ar
    26    29    30    1
    27    21    22    1
    28     7     8   ar
    29     8     9    1
    30    15    11   ar
    31     8     4   ar
    32    22    17    1
    33    21    19    1
    34    29    23   ar
