@<TRIPOS>MOLECULE
*****
 33 36 0 0 0
SMALL
GASTEIGER

@<TRIPOS>ATOM
      1 C         141.3522  138.2030  161.9497 C.ar    1  UNL1        0.1318
      2 C         139.9031  138.4395  162.2564 C.ar    1  UNL1        0.1125
      3 N         139.1655  138.5476  160.9548 N.ar    1  UNL1       -0.2279
      4 C         140.1587  138.3779  159.8437 C.ar    1  UNL1        0.1416
      5 N         141.5102  138.1649  160.4585 N.ar    1  UNL1       -0.3005
      6 C         142.7101  137.9638  159.5812 C.3     1  UNL1        0.1299
      7 C         142.5585  137.9757  158.0890 C.3     1  UNL1        0.1184
      8 N         141.2070  138.1887  157.4741 N.am    1  UNL1       -0.2695
      9 C         141.0554  138.2005  155.9817 C.2     1  UNL1        0.2383
     10 O         139.7039  138.4135  155.3668 O.2     1  UNL1       -0.2735
     11 C         140.0071  138.3897  158.3514 C.3     1  UNL1        0.1578
     12 C         139.2978  138.5487  163.6246 C.ar    1  UNL1        0.0205
     13 C         138.9385  139.8948  164.1804 C.ar    1  UNL1        0.0039
     14 C         138.3333  140.0040  165.5485 C.ar    1  UNL1        0.0297
     15 C         138.0874  138.7672  166.3608 C.ar    1  UNL1        0.1401
     16 F         137.4821  138.8765  167.7289 F       1  UNL1       -0.2042
     17 C         138.4467  137.4212  165.8050 C.ar    1  UNL1        0.0297
     18 C         139.0519  137.3120  164.4368 C.ar    1  UNL1        0.0039
     19 C         142.2553  137.9994  155.1044 C.3     1  UNL1        0.1089
     20 C         142.0169  136.5186  155.1177 C.3     1  UNL1        0.0249
     21 C         142.4937  139.4803  155.0911 C.3     1  UNL1        0.0249
     22 N         143.4553  137.7984  154.2270 N.3     1  UNL1       -0.3164
     23 H         143.5744  136.8034  154.0367 H       1  UNL1        0.1192
     24 H         144.2856  138.1560  154.6993 H       1  UNL1        0.1192
     25 N         142.4506  138.0343  162.9573 N.pl3   1  UNL1       -0.2980
     26 H         143.1174  137.3190  162.8434 H       1  UNL1        0.1536
     27 C         142.7803  141.7181  167.6817 C.3     1  UNL1        0.0310
     28 C         142.6979  140.7972  166.5006 C.ar    1  UNL1       -0.0218
     29 C         142.7356  141.3565  165.1093 C.ar    1  UNL1       -0.0030
     30 C         142.6531  140.4356  163.9282 C.ar    1  UNL1        0.0143
     31 C         142.5330  138.9552  164.1383 C.ar    1  UNL1        0.0493
     32 C         142.4953  138.3959  165.5297 C.ar    1  UNL1        0.0143
     33 C         142.5777  139.3168  166.7108 C.ar    1  UNL1       -0.0030
@<TRIPOS>BOND
     1    27    28    1
     2    28    29   ar
     3    29    30   ar
     4    30    31   ar
     5    31    25    1
     6    25     1    1
     7     1     2   ar
     8     2    12    1
     9    12    13   ar
    10    13    14   ar
    11    14    15   ar
    12    15    16    1
    13    15    17   ar
    14    17    18   ar
    15     2     3   ar
    16     3     4   ar
    17     4     5   ar
    18     5     6    1
    19     6     7    1
    20     7     8    1
    21     8     9   am
    22     9    10    2
    23     9    19    1
    24    19    20    1
    25    19    21    1
    26    19    22    1
    27     8    11    1
    28    31    32   ar
    29    32    33   ar
    30    33    28   ar
    31     5     1   ar
    32    18    12   ar
    33    11     4    1
    34    25    26    1
    35    22    23    1
    36    22    24    1
@<TRIPOS>MOLECULE
*****
 33 36 0 0 0
SMALL
GASTEIGER

@<TRIPOS>ATOM
      1 C         141.3490  138.2103  161.9522 C.ar    1  UNL1        0.1318
      2 C         139.8996  138.4442  162.2595 C.ar    1  UNL1        0.1125
      3 N         139.1608  138.5480  160.9582 N.ar    1  UNL1       -0.2279
      4 C         140.1537  138.3783  159.8467 C.ar    1  UNL1        0.1416
      5 N         141.5061  138.1696  160.4610 N.ar    1  UNL1       -0.3005
      6 C         142.7058  137.9694  159.5832 C.3     1  UNL1        0.1299
      7 C         142.5531  137.9780  158.0911 C.3     1  UNL1        0.1184
      8 N         141.2007  138.1867  157.4767 N.am    1  UNL1       -0.2695
      9 C         141.0481  138.1953  155.9845 C.2     1  UNL1        0.2383
     10 O         139.6957  138.4040  155.3701 O.2     1  UNL1       -0.2735
     11 C         140.0010  138.3869  158.3545 C.3     1  UNL1        0.1578
     12 C         139.2951  138.5548  163.6278 C.ar    1  UNL1        0.0205
     13 C         139.0494  137.3188  164.4414 C.ar    1  UNL1        0.0039
     14 C         138.4449  137.4295  165.8097 C.ar    1  UNL1        0.0297
     15 C         138.0860  138.7761  166.3645 C.ar    1  UNL1        0.1401
     16 F         137.4815  138.8867  167.7328 F       1  UNL1       -0.2042
     17 C         138.3317  140.0121  165.5509 C.ar    1  UNL1        0.0297
     18 C         138.9362  139.9014  164.1826 C.ar    1  UNL1        0.0039
     19 C         142.2478  137.9951  155.1067 C.3     1  UNL1        0.1089
     20 C         142.4843  139.4762  155.0922 C.3     1  UNL1        0.0249
     21 C         142.0113  136.5139  155.1212 C.3     1  UNL1        0.0249
     22 N         143.4476  137.7948  154.2289 N.3     1  UNL1       -0.3164
     23 H         143.8712  138.6990  154.0206 H       1  UNL1        0.1192
     24 H         143.1613  137.3451  153.3593 H       1  UNL1        0.1192
     25 N         142.4484  138.0459  162.9593 N.pl3   1  UNL1       -0.2980
     26 H         143.1181  137.3333  162.8452 H       1  UNL1        0.1536
     27 C         142.7653  141.7314  167.6834 C.3     1  UNL1        0.0310
     28 C         142.6861  140.8100  166.5024 C.ar    1  UNL1       -0.0218
     29 C         142.5596  139.3302  166.7127 C.ar    1  UNL1       -0.0030
     30 C         142.4804  138.4088  165.5317 C.ar    1  UNL1        0.0143
     31 C         142.5276  138.9672  164.1403 C.ar    1  UNL1        0.0493
     32 C         142.6541  140.4471  163.9300 C.ar    1  UNL1        0.0143
     33 C         142.7333  141.3685  165.1110 C.ar    1  UNL1       -0.0030
@<TRIPOS>BOND
     1    27    28    1
     2    28    29   ar
     3    29    30   ar
     4    30    31   ar
     5    31    25    1
     6    25     1    1
     7     1     2   ar
     8     2    12    1
     9    12    13   ar
    10    13    14   ar
    11    14    15   ar
    12    15    16    1
    13    15    17   ar
    14    17    18   ar
    15     2     3   ar
    16     3     4   ar
    17     4     5   ar
    18     5     6    1
    19     6     7    1
    20     7     8    1
    21     8     9   am
    22     9    10    2
    23     9    19    1
    24    19    20    1
    25    19    21    1
    26    19    22    1
    27     8    11    1
    28    31    32   ar
    29    32    33   ar
    30    33    28   ar
    31     5     1   ar
    32    18    12   ar
    33    11     4    1
    34    25    26    1
    35    22    23    1
    36    22    24    1
@<TRIPOS>MOLECULE
*****
 33 36 0 0 0
SMALL
GASTEIGER

@<TRIPOS>ATOM
      1 C         141.1326  139.8811  161.4525 C.ar    1  UNL1        0.1318
      2 C         140.1327  140.9503  161.1255 C.ar    1  UNL1        0.1125
      3 N         139.9718  140.9942  159.6348 N.ar    1  UNL1       -0.2279
      4 C         140.8723  139.9521  159.0405 C.ar    1  UNL1        0.1416
      5 N         141.5897  139.2641  160.1640 N.ar    1  UNL1       -0.3005
      6 C         142.5664  138.1648  159.8684 C.3     1  UNL1        0.1299
      7 C         142.8258  137.7534  158.4495 C.3     1  UNL1        0.1184
      8 N         142.1084  138.4414  157.3261 N.am    1  UNL1       -0.2695
      9 C         142.3678  138.0299  155.9071 C.2     1  UNL1        0.2383
     10 O         141.6503  138.7178  154.7836 O.2     1  UNL1       -0.2735
     11 C         141.1316  139.5407  157.6216 C.3     1  UNL1        0.1578
     12 C         139.4190  141.8226  162.1154 C.ar    1  UNL1        0.0205
     13 C         138.0303  141.4712  162.5604 C.ar    1  UNL1        0.0039
     14 C         137.3166  142.3434  163.5502 C.ar    1  UNL1        0.0297
     15 C         137.9916  143.5670  164.0952 C.ar    1  UNL1        0.1401
     16 F         137.2779  144.4393  165.0851 F       1  UNL1       -0.2042
     17 C         139.3803  143.9185  163.6502 C.ar    1  UNL1        0.0297
     18 C         140.0940  143.0462  162.6604 C.ar    1  UNL1        0.0039
     19 C         143.3445  136.9306  155.6115 C.3     1  UNL1        0.1089
     20 C         144.4172  137.9498  155.3655 C.3     1  UNL1        0.0249
     21 C         142.2719  135.9114  155.8576 C.3     1  UNL1        0.0249
     22 N         144.3213  135.8312  155.3160 N.3     1  UNL1       -0.3164
     23 H         145.2304  136.2354  155.0913 H       1  UNL1        0.1192
     24 H         143.9872  135.2837  154.5229 H       1  UNL1        0.1192
     25 N         141.5944  139.4964  162.8269 N.pl3   1  UNL1       -0.2980
     26 H         142.5569  139.4224  163.0200 H       1  UNL1        0.1536
     27 C         137.5757  138.4083  167.1473 C.3     1  UNL1        0.0310
     28 C         138.5804  138.6803  166.0672 C.ar    1  UNL1       -0.0218
     29 C         138.7141  137.7334  164.9115 C.ar    1  UNL1       -0.0030
     30 C         139.7188  138.0054  163.8314 C.ar    1  UNL1        0.0143
     31 C         140.5897  139.2243  163.9069 C.ar    1  UNL1        0.0493
     32 C         140.4560  140.1712  165.0626 C.ar    1  UNL1        0.0143
     33 C         139.4513  139.8992  166.1427 C.ar    1  UNL1       -0.0030
@<TRIPOS>BOND
     1    27    28    1
     2    28    29   ar
     3    29    30   ar
     4    30    31   ar
     5    31    25    1
     6    25     1    1
     7     1     2   ar
     8     2    12    1
     9    12    13   ar
    10    13    14   ar
    11    14    15   ar
    12    15    16    1
    13    15    17   ar
    14    17    18   ar
    15     2     3   ar
    16     3     4   ar
    17     4     5   ar
    18     5     6    1
    19     6     7    1
    20     7     8    1
    21     8     9   am
    22     9    10    2
    23     9    19    1
    24    19    20    1
    25    19    21    1
    26    19    22    1
    27     8    11    1
    28    31    32   ar
    29    32    33   ar
    30    33    28   ar
    31     5     1   ar
    32    18    12   ar
    33    11     4    1
    34    25    26    1
    35    22    23    1
    36    22    24    1
@<TRIPOS>MOLECULE
*****
 33 36 0 0 0
SMALL
GASTEIGER

@<TRIPOS>ATOM
      1 C         140.7368  140.1160  164.2370 C.ar    1  UNL1        0.1318
      2 C         141.8794  139.2597  163.7775 C.ar    1  UNL1        0.1125
      3 N         142.7426  138.9612  164.9673 N.ar    1  UNL1       -0.2279
      4 C         142.1335  139.6330  166.1622 C.ar    1  UNL1        0.1416
      5 N         140.8938  140.3467  165.7109 N.ar    1  UNL1       -0.3005
      6 C         140.0681  141.1144  166.7002 C.3     1  UNL1        0.1299
      7 C         140.4822  141.1684  168.1409 C.3     1  UNL1        0.1184
      8 N         141.7219  140.4547  168.5922 N.am    1  UNL1       -0.2695
      9 C         142.1360  140.5088  170.0330 C.2     1  UNL1        0.2383
     10 O         143.3757  139.7951  170.4843 O.2     1  UNL1       -0.2735
     11 C         142.5476  139.6870  167.6029 C.3     1  UNL1        0.1578
     12 C         142.1170  138.7853  162.3745 C.ar    1  UNL1        0.0205
     13 C         143.4098  138.1127  162.0190 C.ar    1  UNL1        0.0039
     14 C         143.6475  137.6383  160.6160 C.ar    1  UNL1        0.0297
     15 C         142.5923  137.8364  159.5685 C.ar    1  UNL1        0.1401
     16 F         142.8300  137.3619  158.1655 F       1  UNL1       -0.2042
     17 C         141.2996  138.5089  159.9239 C.ar    1  UNL1        0.0297
     18 C         141.0619  138.9833  161.3269 C.ar    1  UNL1        0.0039
     19 C         141.3103  141.2765  171.0223 C.3     1  UNL1        0.1089
     20 C         140.4041  140.0923  171.1850 C.3     1  UNL1        0.0249
     21 C         142.2164  142.4607  170.8596 C.3     1  UNL1        0.0249
     22 N         140.4846  142.0443  172.0117 N.3     1  UNL1       -0.3164
     23 H         139.7165  141.4591  172.3403 H       1  UNL1        0.1192
     24 H         140.1080  142.8800  171.5643 H       1  UNL1        0.1192
     25 N         139.6311  140.6482  163.3743 N.pl3   1  UNL1       -0.2980
     26 H         138.9046  140.0517  163.0817 H       1  UNL1        0.1536
     27 C         139.6363  146.4116  161.7062 C.3     1  UNL1        0.0310
     28 C         139.6351  144.9707  162.1232 C.ar    1  UNL1       -0.0218
     29 C         140.8489  144.1211  161.8893 C.ar    1  UNL1       -0.0030
     30 C         140.8476  142.6803  162.3063 C.ar    1  UNL1        0.0143
     31 C         139.6325  142.0889  162.9573 C.ar    1  UNL1        0.0493
     32 C         138.4186  142.9386  163.1912 C.ar    1  UNL1        0.0143
     33 C         138.4198  144.3795  162.7742 C.ar    1  UNL1       -0.0030
@<TRIPOS>BOND
     1    27    28    1
     2    28    29   ar
     3    29    30   ar
     4    30    31   ar
     5    31    25    1
     6    25     1    1
     7     1     2   ar
     8     2    12    1
     9    12    13   ar
    10    13    14   ar
    11    14    15   ar
    12    15    16    1
    13    15    17   ar
    14    17    18   ar
    15     2     3   ar
    16     3     4   ar
    17     4     5   ar
    18     5     6    1
    19     6     7    1
    20     7     8    1
    21     8     9   am
    22     9    10    2
    23     9    19    1
    24    19    20    1
    25    19    21    1
    26    19    22    1
    27     8    11    1
    28    31    32   ar
    29    32    33   ar
    30    33    28   ar
    31     5     1   ar
    32    18    12   ar
    33    11     4    1
    34    25    26    1
    35    22    23    1
    36    22    24    1
@<TRIPOS>MOLECULE
*****
 33 36 0 0 0
SMALL
GASTEIGER

@<TRIPOS>ATOM
      1 C         142.0591  141.2044  161.3247 C.ar    1  UNL1        0.1318
      2 C         141.8143  139.7301  161.4539 C.ar    1  UNL1        0.1125
      3 N         142.5196  139.0424  160.3226 N.ar    1  UNL1       -0.2279
      4 C         143.2002  140.0916  159.4944 C.ar    1  UNL1        0.1416
      5 N         142.9156  141.4278  160.1138 N.ar    1  UNL1       -0.3005
      6 C         143.4732  142.6753  159.4950 C.3     1  UNL1        0.1299
      7 C         144.3153  142.5865  158.2570 C.3     1  UNL1        0.1184
      8 N         144.5999  141.2503  157.6376 N.am    1  UNL1       -0.2695
      9 C         145.4421  141.1617  156.3995 C.2     1  UNL1        0.2383
     10 O         145.7267  139.8255  155.7801 O.2     1  UNL1       -0.2735
     11 C         144.0424  140.0029  158.2564 C.3     1  UNL1        0.1578
     12 C         141.0062  139.0611  162.5259 C.ar    1  UNL1        0.0205
     13 C         141.6964  138.3592  163.6576 C.ar    1  UNL1        0.0039
     14 C         140.8883  137.6902  164.7297 C.ar    1  UNL1        0.0297
     15 C         139.3899  137.7231  164.6700 C.ar    1  UNL1        0.1401
     16 F         138.5817  137.0540  165.7421 F       1  UNL1       -0.2042
     17 C         138.6996  138.4250  163.5383 C.ar    1  UNL1        0.0297
     18 C         139.5077  139.0940  162.4663 C.ar    1  UNL1        0.0039
     19 C         145.9997  142.4091  155.7808 C.3     1  UNL1        0.1089
     20 C         144.7697  142.5378  154.9319 C.3     1  UNL1        0.0249
     21 C         147.2296  142.2804  156.6296 C.3     1  UNL1        0.0249
     22 N         146.5573  143.6567  155.1620 N.3     1  UNL1       -0.3164
     23 H         145.8952  144.0220  154.4775 H       1  UNL1        0.1192
     24 H         147.4405  143.4413  154.6994 H       1  UNL1        0.1192
     25 N         141.5387  142.2685  162.2450 N.pl3   1  UNL1       -0.2980
     26 H         140.9584  142.9821  161.8941 H       1  UNL1        0.1536
     27 C         142.9935  142.1756  168.0652 C.3     1  UNL1        0.0310
     28 C         142.6299  142.1988  166.6102 C.ar    1  UNL1       -0.0218
     29 C         143.6903  142.4335  165.5757 C.ar    1  UNL1       -0.0030
     30 C         143.3267  142.4567  164.1206 C.ar    1  UNL1        0.0143
     31 C         141.9025  142.2453  163.7000 C.ar    1  UNL1        0.0493
     32 C         140.8419  142.0106  164.7346 C.ar    1  UNL1        0.0143
     33 C         141.2056  141.9874  166.1897 C.ar    1  UNL1       -0.0030
@<TRIPOS>BOND
     1    27    28    1
     2    28    29   ar
     3    29    30   ar
     4    30    31   ar
     5    31    25    1
     6    25     1    1
     7     1     2   ar
     8     2    12    1
     9    12    13   ar
    10    13    14   ar
    11    14    15   ar
    12    15    16    1
    13    15    17   ar
    14    17    18   ar
    15     2     3   ar
    16     3     4   ar
    17     4     5   ar
    18     5     6    1
    19     6     7    1
    20     7     8    1
    21     8     9   am
    22     9    10    2
    23     9    19    1
    24    19    20    1
    25    19    21    1
    26    19    22    1
    27     8    11    1
    28    31    32   ar
    29    32    33   ar
    30    33    28   ar
    31     5     1   ar
    32    18    12   ar
    33    11     4    1
    34    25    26    1
    35    22    23    1
    36    22    24    1
@<TRIPOS>MOLECULE
*****
 33 36 0 0 0
SMALL
GASTEIGER

@<TRIPOS>ATOM
      1 C         140.7750  139.0745  161.1192 C.ar    1  UNL1        0.1318
      2 C         142.0604  138.9248  161.8777 C.ar    1  UNL1        0.1125
      3 N         143.0654  138.2865  160.9652 N.ar    1  UNL1       -0.2279
      4 C         142.4010  138.0416  159.6428 C.ar    1  UNL1        0.1416
      5 N         140.9855  138.5286  159.7380 N.ar    1  UNL1       -0.3005
      6 C         140.0711  138.4121  158.5547 C.3     1  UNL1        0.1299
      7 C         140.5723  137.8085  157.2762 C.3     1  UNL1        0.1184
      8 N         141.9878  137.3215  157.1811 N.am    1  UNL1       -0.2695
      9 C         142.4889  136.7179  155.9025 C.2     1  UNL1        0.2383
     10 O         143.9045  136.2309  155.8073 O.2     1  UNL1       -0.2735
     11 C         142.9022  137.4380  158.3644 C.3     1  UNL1        0.1578
     12 C         142.2990  139.3406  163.2990 C.ar    1  UNL1        0.0205
     13 C         142.4694  140.7919  163.6374 C.ar    1  UNL1        0.0039
     14 C         142.7080  141.2077  165.0588 C.ar    1  UNL1        0.0297
     15 C         142.7762  140.1721  166.1417 C.ar    1  UNL1        0.1401
     16 F         143.0148  140.5878  167.5631 F       1  UNL1       -0.2042
     17 C         142.6058  138.7207  165.8033 C.ar    1  UNL1        0.0297
     18 C         142.3672  138.3050  164.3820 C.ar    1  UNL1        0.0039
     19 C         141.5745  136.6014  154.7192 C.3     1  UNL1        0.1089
     20 C         141.1503  135.2389  155.1812 C.3     1  UNL1        0.0249
     21 C         141.9988  137.9639  154.2572 C.3     1  UNL1        0.0249
     22 N         140.6601  136.4850  153.5358 N.3     1  UNL1       -0.3164
     23 H         140.1808  135.5850  153.5638 H       1  UNL1        0.1192
     24 H         141.2056  136.5531  152.6766 H       1  UNL1        0.1192
     25 N         139.5025  139.6662  161.6489 N.pl3   1  UNL1       -0.2980
     26 H         138.9447  140.2335  161.0691 H       1  UNL1        0.1536
     27 C         137.8116  138.5755  167.3014 C.3     1  UNL1        0.0310
     28 C         138.2343  138.8481  165.8883 C.ar    1  UNL1       -0.0218
     29 C         138.5445  137.7075  164.9649 C.ar    1  UNL1       -0.0030
     30 C         138.9672  137.9802  163.5518 C.ar    1  UNL1        0.0143
     31 C         139.0798  139.3935  163.0620 C.ar    1  UNL1        0.0493
     32 C         138.7696  140.5341  163.9855 C.ar    1  UNL1        0.0143
     33 C         138.3469  140.2615  165.3986 C.ar    1  UNL1       -0.0030
@<TRIPOS>BOND
     1    27    28    1
     2    28    29   ar
     3    29    30   ar
     4    30    31   ar
     5    31    25    1
     6    25     1    1
     7     1     2   ar
     8     2    12    1
     9    12    13   ar
    10    13    14   ar
    11    14    15   ar
    12    15    16    1
    13    15    17   ar
    14    17    18   ar
    15     2     3   ar
    16     3     4   ar
    17     4     5   ar
    18     5     6    1
    19     6     7    1
    20     7     8    1
    21     8     9   am
    22     9    10    2
    23     9    19    1
    24    19    20    1
    25    19    21    1
    26    19    22    1
    27     8    11    1
    28    31    32   ar
    29    32    33   ar
    30    33    28   ar
    31     5     1   ar
    32    18    12   ar
    33    11     4    1
    34    25    26    1
    35    22    23    1
    36    22    24    1
@<TRIPOS>MOLECULE
*****
 33 36 0 0 0
SMALL
GASTEIGER

@<TRIPOS>ATOM
      1 C         141.5217  140.5687  163.6302 C.ar    1  UNL1        0.1318
      2 C         140.0523  140.5133  163.3339 C.ar    1  UNL1        0.1125
      3 N         139.3258  140.3062  164.6298 N.ar    1  UNL1       -0.2279
      4 C         140.3461  140.2334  165.7269 C.ar    1  UNL1        0.1416
      5 N         141.7033  140.3957  165.1091 N.ar    1  UNL1       -0.3005
      6 C         142.9291  140.3649  165.9729 C.3     1  UNL1        0.1299
      7 C         142.7978  140.1719  167.4546 C.3     1  UNL1        0.1184
      8 N         141.4406  140.0097  168.0724 N.am    1  UNL1       -0.2695
      9 C         141.3092  139.8167  169.5542 C.2     1  UNL1        0.2383
     10 O         139.9520  139.6544  170.1720 O.2     1  UNL1       -0.2735
     11 C         140.2147  140.0404  167.2085 C.3     1  UNL1        0.1578
     12 C         139.4204  140.6425  161.9797 C.ar    1  UNL1        0.0205
     13 C         139.0472  139.4130  161.2058 C.ar    1  UNL1        0.0039
     14 C         138.4153  139.5422  159.8516 C.ar    1  UNL1        0.0297
     15 C         138.1566  140.9009  159.2712 C.ar    1  UNL1        0.1401
     16 F         137.5247  141.0301  157.9169 F       1  UNL1       -0.2042
     17 C         138.5298  142.1304  160.0450 C.ar    1  UNL1        0.0297
     18 C         139.1617  142.0012  161.3993 C.ar    1  UNL1        0.0039
     19 C         142.5351  139.7859  170.4181 C.3     1  UNL1        0.1089
     20 C         142.3508  141.2412  170.7313 C.3     1  UNL1        0.0249
     21 C         142.7193  138.3307  170.1049 C.3     1  UNL1        0.0249
     22 N         143.7610  139.7552  171.2820 N.3     1  UNL1       -0.3164
     23 H         143.9208  140.6812  171.6787 H       1  UNL1        0.1192
     24 H         144.5668  139.4827  170.7192 H       1  UNL1        0.1192
     25 N         142.6172  140.7629  162.6241 N.pl3   1  UNL1       -0.2980
     26 H         143.3146  141.4400  162.7803 H       1  UNL1        0.1536
     27 C         142.7495  137.4131  157.6481 C.3     1  UNL1        0.0310
     28 C         142.7164  138.2505  158.8921 C.ar    1  UNL1       -0.0218
     29 C         142.4886  139.7299  158.7945 C.ar    1  UNL1       -0.0030
     30 C         142.4556  140.5674  160.0385 C.ar    1  UNL1        0.0143
     31 C         142.6503  139.9255  161.3802 C.ar    1  UNL1        0.0493
     32 C         142.8781  138.4461  161.4777 C.ar    1  UNL1        0.0143
     33 C         142.9112  137.6086  160.2338 C.ar    1  UNL1       -0.0030
@<TRIPOS>BOND
     1    27    28    1
     2    28    29   ar
     3    29    30   ar
     4    30    31   ar
     5    31    25    1
     6    25     1    1
     7     1     2   ar
     8     2    12    1
     9    12    13   ar
    10    13    14   ar
    11    14    15   ar
    12    15    16    1
    13    15    17   ar
    14    17    18   ar
    15     2     3   ar
    16     3     4   ar
    17     4     5   ar
    18     5     6    1
    19     6     7    1
    20     7     8    1
    21     8     9   am
    22     9    10    2
    23     9    19    1
    24    19    20    1
    25    19    21    1
    26    19    22    1
    27     8    11    1
    28    31    32   ar
    29    32    33   ar
    30    33    28   ar
    31     5     1   ar
    32    18    12   ar
    33    11     4    1
    34    25    26    1
    35    22    23    1
    36    22    24    1
@<TRIPOS>MOLECULE
*****
 33 36 0 0 0
SMALL
GASTEIGER

@<TRIPOS>ATOM
      1 C         141.2263  141.9619  163.7758 C.ar    1  UNL1        0.1318
      2 C         140.1564  141.0962  163.1794 C.ar    1  UNL1        0.1125
      3 N         139.4130  140.4375  164.3035 N.ar    1  UNL1       -0.2279
      4 C         140.0235  140.8961  165.5946 C.ar    1  UNL1        0.1416
      5 N         141.1442  141.8383  165.2685 N.ar    1  UNL1       -0.3005
      6 C         141.9451  142.4619  166.3728 C.3     1  UNL1        0.1299
      7 C         141.6254  142.1433  167.8032 C.3     1  UNL1        0.1184
      8 N         140.5047  141.2011  168.1293 N.am    1  UNL1       -0.2695
      9 C         140.1849  140.8825  169.5599 C.2     1  UNL1        0.2383
     10 O         139.0642  139.9404  169.8860 O.2     1  UNL1       -0.2735
     11 C         139.7037  140.5775  167.0250 C.3     1  UNL1        0.1578
     12 C         139.8786  140.9201  161.7159 C.ar    1  UNL1        0.0205
     13 C         140.6979  139.9584  160.9074 C.ar    1  UNL1        0.0039
     14 C         140.4201  139.7823  159.4439 C.ar    1  UNL1        0.0297
     15 C         139.3230  140.5679  158.7889 C.ar    1  UNL1        0.1401
     16 F         139.0451  140.3917  157.3254 F       1  UNL1       -0.2042
     17 C         138.5036  141.5295  159.5974 C.ar    1  UNL1        0.0297
     18 C         138.7814  141.7056  161.0609 C.ar    1  UNL1        0.0039
     19 C         140.9859  141.5061  170.6642 C.3     1  UNL1        0.1089
     20 C         140.0362  142.6667  170.6976 C.3     1  UNL1        0.0249
     21 C         141.9355  140.3456  170.6308 C.3     1  UNL1        0.0249
     22 N         141.7869  142.1297  171.7686 N.3     1  UNL1       -0.3164
     23 H         141.3596  143.0152  172.0404 H       1  UNL1        0.1192
     24 H         142.7395  142.2971  171.4449 H       1  UNL1        0.1192
     25 N         142.2063  142.8036  163.0135 N.pl3   1  UNL1       -0.2980
     26 H         143.1436  142.8577  163.3097 H       1  UNL1        0.1536
     27 C         140.4141  145.8403  158.1590 C.3     1  UNL1        0.0310
     28 C         140.8622  145.0811  159.3726 C.ar    1  UNL1       -0.0218
     29 C         141.8610  143.9704  159.2360 C.ar    1  UNL1       -0.0030
     30 C         142.3091  143.2112  160.4496 C.ar    1  UNL1        0.0143
     31 C         141.7583  143.5627  161.7999 C.ar    1  UNL1        0.0493
     32 C         140.7594  144.6734  161.9364 C.ar    1  UNL1        0.0143
     33 C         140.3113  145.4326  160.7228 C.ar    1  UNL1       -0.0030
@<TRIPOS>BOND
     1    27    28    1
     2    28    29   ar
     3    29    30   ar
     4    30    31   ar
     5    31    25    1
     6    25     1    1
     7     1     2   ar
     8     2    12    1
     9    12    13   ar
    10    13    14   ar
    11    14    15   ar
    12    15    16    1
    13    15    17   ar
    14    17    18   ar
    15     2     3   ar
    16     3     4   ar
    17     4     5   ar
    18     5     6    1
    19     6     7    1
    20     7     8    1
    21     8     9   am
    22     9    10    2
    23     9    19    1
    24    19    20    1
    25    19    21    1
    26    19    22    1
    27     8    11    1
    28    31    32   ar
    29    32    33   ar
    30    33    28   ar
    31     5     1   ar
    32    18    12   ar
    33    11     4    1
    34    25    26    1
    35    22    23    1
    36    22    24    1
@<TRIPOS>MOLECULE
*****
 33 36 0 0 0
SMALL
GASTEIGER

@<TRIPOS>ATOM
      1 C         140.5921  141.0691  161.3406 C.ar    1  UNL1        0.1318
      2 C         141.7460  141.3930  162.2426 C.ar    1  UNL1        0.1125
      3 N         142.4634  142.5792  161.6696 N.ar    1  UNL1       -0.2279
      4 C         141.7528  142.9884  160.4135 C.ar    1  UNL1        0.1416
      5 N         140.5963  142.0551  160.2102 N.ar    1  UNL1       -0.3005
      6 C         139.6964  142.2236  159.0220 C.3     1  UNL1        0.1299
      7 C         139.9531  143.3254  158.0372 C.3     1  UNL1        0.1184
      8 N         141.1097  144.2587  158.2405 N.am    1  UNL1       -0.2695
      9 C         141.3663  145.3606  157.2555 C.2     1  UNL1        0.2383
     10 O         142.5229  146.2939  157.4588 O.2     1  UNL1       -0.2735
     11 C         142.0095  144.0902  159.4286 C.3     1  UNL1        0.1578
     12 C         142.1174  140.6596  163.4972 C.ar    1  UNL1        0.0205
     13 C         142.8086  139.3311  163.4127 C.ar    1  UNL1        0.0039
     14 C         143.1800  138.5976  164.6673 C.ar    1  UNL1        0.0297
     15 C         142.8601  139.1927  166.0065 C.ar    1  UNL1        0.1401
     16 F         143.2315  138.4592  167.2612 F       1  UNL1       -0.2042
     17 C         142.1689  140.5212  166.0911 C.ar    1  UNL1        0.0297
     18 C         141.7975  141.2546  164.8364 C.ar    1  UNL1        0.0039
     19 C         140.4664  145.5291  156.0673 C.3     1  UNL1        0.1089
     20 C         141.2522  144.4894  155.3247 C.3     1  UNL1        0.0249
     21 C         139.6806  146.5688  156.8099 C.3     1  UNL1        0.0249
     22 N         139.5665  145.6977  154.8791 N.3     1  UNL1       -0.3164
     23 H         139.8663  145.0693  154.1337 H       1  UNL1        0.1192
     24 H         139.6142  146.6622  154.5506 H       1  UNL1        0.1192
     25 N         139.6069  139.9548  161.5350 N.pl3   1  UNL1       -0.2980
     26 H         139.2588  139.4641  160.7557 H       1  UNL1        0.1536
     27 C         137.7877  138.4882  167.0612 C.3     1  UNL1        0.0310
     28 C         138.2425  138.8549  165.6797 C.ar    1  UNL1       -0.0218
     29 C         137.9129  140.2049  165.1152 C.ar    1  UNL1       -0.0030
     30 C         138.3677  140.5716  163.7336 C.ar    1  UNL1        0.0143
     31 C         139.1521  139.5882  162.9165 C.ar    1  UNL1        0.0493
     32 C         139.4817  138.2381  163.4810 C.ar    1  UNL1        0.0143
     33 C         139.0269  137.8714  164.8626 C.ar    1  UNL1       -0.0030
@<TRIPOS>BOND
     1    27    28    1
     2    28    29   ar
     3    29    30   ar
     4    30    31   ar
     5    31    25    1
     6    25     1    1
     7     1     2   ar
     8     2    12    1
     9    12    13   ar
    10    13    14   ar
    11    14    15   ar
    12    15    16    1
    13    15    17   ar
    14    17    18   ar
    15     2     3   ar
    16     3     4   ar
    17     4     5   ar
    18     5     6    1
    19     6     7    1
    20     7     8    1
    21     8     9   am
    22     9    10    2
    23     9    19    1
    24    19    20    1
    25    19    21    1
    26    19    22    1
    27     8    11    1
    28    31    32   ar
    29    32    33   ar
    30    33    28   ar
    31     5     1   ar
    32    18    12   ar
    33    11     4    1
    34    25    26    1
    35    22    23    1
    36    22    24    1
