@<TRIPOS>MOLECULE
*****
 34 38 0 0 0
SMALL
GASTEIGER

@<TRIPOS>ATOM
      1 C         140.6429  139.0272  160.6109 C.3     1  UNL1        0.0747
      2 C         142.0646  139.1587  160.1509 C.3     1  UNL1        0.0369
      3 C         142.4386  138.7727  158.7506 C.3     1  UNL1        0.0741
      4 N         141.3909  138.2550  157.8101 N.3     1  UNL1       -0.2688
      5 C         139.9692  138.1235  158.2701 C.3     1  UNL1        0.0741
      6 C         139.5953  138.5096  159.6705 C.3     1  UNL1        0.0369
      7 O         140.8213  137.0076  162.8221 O.2     1  UNL1       -0.2668
      8 C         140.3582  138.4035  163.1168 C.2     1  UNL1        0.2806
      9 N         140.2690  139.4133  162.0112 N.am    1  UNL1       -0.2999
     10 H         139.9650  140.3295  162.2047 H       1  UNL1        0.1498
     11 C         139.9842  138.7896  164.5172 C.ar    1  UNL1        0.2014
     12 C         138.7292  138.2477  165.1349 C.ar    1  UNL1        0.0843
     13 C         138.3552  138.6338  166.5352 C.ar    1  UNL1        0.2018
     14 O         137.1003  138.0919  167.1528 O.2     1  UNL1       -0.2864
     15 C         139.2361  139.5619  167.3180 C.ar    1  UNL1        0.0737
     16 C         138.8621  139.9480  168.7183 C.ar    1  UNL1        0.0085
     17 C         139.7430  140.8760  169.5010 C.ar    1  UNL1        0.0299
     18 C         140.9980  141.4180  168.8834 C.ar    1  UNL1        0.1432
     19 F         141.8789  142.3460  169.6662 F       1  UNL1       -0.2041
     20 C         141.3720  141.0319  167.4831 C.ar    1  UNL1        0.0672
     21 C         140.4911  140.1038  166.7004 C.ar    1  UNL1        0.1508
     22 O         140.8651  139.7177  165.3000 O.2     1  UNL1       -0.4486
     23 C         141.7648  137.8689  156.4097 C.3     1  UNL1        0.0992
     24 C         142.3289  136.5070  156.1325 C.ar    1  UNL1       -0.0029
     25 C         142.1374  135.8758  154.7853 C.ar    1  UNL1        0.0004
     26 C         142.7014  134.5139  154.5081 C.ar    1  UNL1        0.0401
     27 C         143.4571  133.7830  155.5780 C.ar    1  UNL1        0.1817
     28 C         143.6486  134.4142  156.9252 C.ar    1  UNL1        0.1814
     29 C         143.0846  135.7761  157.2024 C.ar    1  UNL1        0.0375
     30 O         144.4325  133.4600  157.7769 O.3     1  UNL1       -0.3948
     31 C         144.7254  132.2392  156.9560 C.3     1  UNL1        0.5892
     32 F         145.4198  131.7637  158.1975 F       1  UNL1       -0.1252
     33 F         145.1634  130.9190  156.3947 F       1  UNL1       -0.1252
     34 O         144.1225  132.4389  155.5971 O.3     1  UNL1       -0.3948
@<TRIPOS>BOND
     1     7     8    2
     2     8     9   am
     3     9     1    1
     4     1     2    1
     5     2     3    1
     6     3     4    1
     7     4    23    1
     8    23    24    1
     9    24    25   ar
    10    25    26   ar
    11    26    27   ar
    12    27    28   ar
    13    28    29   ar
    14    28    30    1
    15    30    31    1
    16    31    32    1
    17    31    33    1
    18    31    34    1
    19     4     5    1
    20     5     6    1
    21     8    11    1
    22    11    12   ar
    23    12    13   ar
    24    13    14    2
    25    13    15   ar
    26    15    16   ar
    27    16    17   ar
    28    17    18   ar
    29    18    19    1
    30    18    20   ar
    31    20    21   ar
    32    21    22   ar
    33     6     1    1
    34    22    11   ar
    35    29    24   ar
    36    21    15   ar
    37    34    27    1
    38     9    10    1
@<TRIPOS>MOLECULE
*****
 34 38 0 0 0
SMALL
GASTEIGER

@<TRIPOS>ATOM
      1 C         144.9097  142.7453  162.0629 C.3     1  UNL1        0.0747
      2 C         145.2451  141.5956  162.9660 C.3     1  UNL1        0.0369
      3 C         144.8839  141.6543  164.4206 C.3     1  UNL1        0.0741
      4 N         144.1873  142.8628  164.9723 N.3     1  UNL1       -0.2688
      5 C         143.8519  144.0126  164.0692 C.3     1  UNL1        0.0741
      6 C         144.2131  143.9538  162.6145 C.3     1  UNL1        0.0369
      7 O         142.7915  142.1887  160.0127 O.2     1  UNL1       -0.2668
      8 C         144.2118  142.4083  159.5831 C.2     1  UNL1        0.2806
      9 N         145.2709  142.6866  160.6082 N.am    1  UNL1       -0.2999
     10 H         146.2030  142.8307  160.3263 H       1  UNL1        0.1498
     11 C         144.5730  142.3496  158.1284 C.ar    1  UNL1        0.2014
     12 C         143.4940  142.2514  157.0911 C.ar    1  UNL1        0.0843
     13 C         143.8551  142.1927  155.6364 C.ar    1  UNL1        0.2018
     14 O         142.7761  142.0946  154.5991 O.2     1  UNL1       -0.2864
     15 C         145.2954  142.2321  155.2190 C.ar    1  UNL1        0.0737
     16 C         145.6566  142.1734  153.7644 C.ar    1  UNL1        0.0085
     17 C         147.0968  142.2128  153.3471 C.ar    1  UNL1        0.0299
     18 C         148.1758  142.3109  154.3844 C.ar    1  UNL1        0.1432
     19 F         149.6161  142.3504  153.9670 F       1  UNL1       -0.2041
     20 C         147.8146  142.3697  155.8391 C.ar    1  UNL1        0.0672
     21 C         146.3744  142.3302  156.2564 C.ar    1  UNL1        0.1508
     22 O         146.0132  142.3890  157.7111 O.2     1  UNL1       -0.4486
     23 C         143.8261  142.9215  166.4269 C.3     1  UNL1        0.0992
     24 C         142.6871  142.0980  166.9507 C.ar    1  UNL1       -0.0029
     25 C         142.5687  141.8315  168.4221 C.ar    1  UNL1        0.0004
     26 C         141.4297  141.0080  168.9459 C.ar    1  UNL1        0.0401
     27 C         140.4090  140.4510  167.9984 C.ar    1  UNL1        0.1817
     28 C         140.5273  140.7175  166.5270 C.ar    1  UNL1        0.1814
     29 C         141.6664  141.5410  166.0032 C.ar    1  UNL1        0.0375
     30 O         139.3779  140.0419  165.8396 O.3     1  UNL1       -0.3948
     31 C         138.5493  139.3578  166.8861 C.3     1  UNL1        0.5892
     32 F         137.7018  138.9438  165.7198 F       1  UNL1       -0.1252
     33 F         137.5434  138.5871  167.6889 F       1  UNL1       -0.1252
     34 O         139.1865  139.6106  168.2203 O.3     1  UNL1       -0.3948
@<TRIPOS>BOND
     1     7     8    2
     2     8     9   am
     3     9     1    1
     4     1     2    1
     5     2     3    1
     6     3     4    1
     7     4    23    1
     8    23    24    1
     9    24    25   ar
    10    25    26   ar
    11    26    27   ar
    12    27    28   ar
    13    28    29   ar
    14    28    30    1
    15    30    31    1
    16    31    32    1
    17    31    33    1
    18    31    34    1
    19     4     5    1
    20     5     6    1
    21     8    11    1
    22    11    12   ar
    23    12    13   ar
    24    13    14    2
    25    13    15   ar
    26    15    16   ar
    27    16    17   ar
    28    17    18   ar
    29    18    19    1
    30    18    20   ar
    31    20    21   ar
    32    21    22   ar
    33     6     1    1
    34    22    11   ar
    35    29    24   ar
    36    21    15   ar
    37    34    27    1
    38     9    10    1
@<TRIPOS>MOLECULE
*****
 34 38 0 0 0
SMALL
GASTEIGER

@<TRIPOS>ATOM
      1 C         137.8093  139.4859  161.3664 C.3     1  UNL1        0.0747
      2 C         137.8225  140.5345  162.4390 C.3     1  UNL1        0.0369
      3 C         138.2919  140.1880  163.8208 C.3     1  UNL1        0.0741
      4 N         138.7481  138.7929  164.1302 N.3     1  UNL1       -0.2688
      5 C         138.7350  137.7443  163.0577 C.3     1  UNL1        0.0741
      6 C         138.2656  138.0909  161.6758 C.3     1  UNL1        0.0369
      7 O         139.7987  140.2422  159.2521 O.2     1  UNL1       -0.2668
      8 C         138.3346  140.2105  158.9274 C.2     1  UNL1        0.2806
      9 N         137.3400  139.8323  159.9846 N.am    1  UNL1       -0.2999
     10 H         136.3790  139.8115  159.7714 H       1  UNL1        0.1498
     11 C         137.8652  140.5569  157.5455 C.ar    1  UNL1        0.2014
     12 C         138.8642  140.8386  156.4626 C.ar    1  UNL1        0.0843
     13 C         138.3948  141.1851  155.0807 C.ar    1  UNL1        0.2018
     14 O         139.3939  141.4667  153.9979 O.2     1  UNL1       -0.2864
     15 C         136.9263  141.2498  154.7817 C.ar    1  UNL1        0.0737
     16 C         136.4569  141.5963  153.3998 C.ar    1  UNL1        0.0085
     17 C         134.9885  141.6610  153.1008 C.ar    1  UNL1        0.0299
     18 C         133.9895  141.3793  154.1836 C.ar    1  UNL1        0.1432
     19 F         132.5210  141.4441  153.8845 F       1  UNL1       -0.2041
     20 C         134.4588  141.0329  155.5655 C.ar    1  UNL1        0.0672
     21 C         135.9273  140.9681  155.8645 C.ar    1  UNL1        0.1508
     22 O         136.3967  140.6217  157.2464 O.2     1  UNL1       -0.4486
     23 C         139.2175  138.4465  165.5121 C.3     1  UNL1        0.0992
     24 C         140.0664  139.4153  166.2808 C.ar    1  UNL1       -0.0029
     25 C         141.5401  139.4972  166.0136 C.ar    1  UNL1        0.0004
     26 C         142.3890  140.4660  166.7823 C.ar    1  UNL1        0.0401
     27 C         141.7641  141.3529  167.8181 C.ar    1  UNL1        0.1817
     28 C         140.2904  141.2710  168.0852 C.ar    1  UNL1        0.1814
     29 C         139.4416  140.3022  167.3166 C.ar    1  UNL1        0.0375
     30 O         139.9580  142.2647  169.1587 O.3     1  UNL1       -0.3948
     31 C         141.2262  142.9606  169.5549 C.3     1  UNL1        0.5892
     32 F         140.3363  143.7020  170.5078 F       1  UNL1       -0.1252
     33 F         142.3085  143.8116  170.1503 F       1  UNL1       -0.1252
     34 O         142.3425  142.3971  168.7264 O.3     1  UNL1       -0.3948
@<TRIPOS>BOND
     1     7     8    2
     2     8     9   am
     3     9     1    1
     4     1     2    1
     5     2     3    1
     6     3     4    1
     7     4    23    1
     8    23    24    1
     9    24    25   ar
    10    25    26   ar
    11    26    27   ar
    12    27    28   ar
    13    28    29   ar
    14    28    30    1
    15    30    31    1
    16    31    32    1
    17    31    33    1
    18    31    34    1
    19     4     5    1
    20     5     6    1
    21     8    11    1
    22    11    12   ar
    23    12    13   ar
    24    13    14    2
    25    13    15   ar
    26    15    16   ar
    27    16    17   ar
    28    17    18   ar
    29    18    19    1
    30    18    20   ar
    31    20    21   ar
    32    21    22   ar
    33     6     1    1
    34    22    11   ar
    35    29    24   ar
    36    21    15   ar
    37    34    27    1
    38     9    10    1
@<TRIPOS>MOLECULE
*****
 34 38 0 0 0
SMALL
GASTEIGER

@<TRIPOS>ATOM
      1 C         140.3567  143.8091  159.4130 C.3     1  UNL1        0.0747
      2 C         139.3904  143.3416  158.3652 C.3     1  UNL1        0.0369
      3 C         139.2651  144.0917  157.0723 C.3     1  UNL1        0.0741
      4 N         140.1061  145.3094  156.8271 N.3     1  UNL1       -0.2688
      5 C         141.0724  145.7769  157.8749 C.3     1  UNL1        0.0741
      6 C         141.1976  145.0267  159.1678 C.3     1  UNL1        0.0369
      7 O         139.0849  144.8922  161.9049 O.2     1  UNL1       -0.2668
      8 C         139.8461  143.6006  161.9518 C.2     1  UNL1        0.2806
      9 N         140.4819  143.0590  160.7058 N.am    1  UNL1       -0.2999
     10 H         140.9815  142.2113  160.7367 H       1  UNL1        0.1498
     11 C         139.9714  142.8504  163.2447 C.ar    1  UNL1        0.2014
     12 C         141.0984  143.1596  164.1850 C.ar    1  UNL1        0.0843
     13 C         141.2238  142.4095  165.4779 C.ar    1  UNL1        0.2018
     14 O         142.3508  142.7188  166.4182 O.2     1  UNL1       -0.2864
     15 C         140.2221  141.3501  165.8305 C.ar    1  UNL1        0.0737
     16 C         140.3474  140.6000  167.1234 C.ar    1  UNL1        0.0085
     17 C         139.3458  139.5406  167.4760 C.ar    1  UNL1        0.0299
     18 C         138.2187  139.2314  166.5357 C.ar    1  UNL1        0.1432
     19 F         137.2170  138.1720  166.8883 F       1  UNL1       -0.2041
     20 C         138.0934  139.9815  165.2428 C.ar    1  UNL1        0.0672
     21 C         139.0950  141.0409  164.8902 C.ar    1  UNL1        0.1508
     22 O         138.9697  141.7910  163.5973 O.2     1  UNL1       -0.4486
     23 C         139.9808  146.0595  155.5342 C.3     1  UNL1        0.0992
     24 C         139.5332  147.4912  155.5381 C.ar    1  UNL1       -0.0029
     25 C         138.7923  148.0422  156.7202 C.ar    1  UNL1        0.0004
     26 C         138.3448  149.4738  156.7240 C.ar    1  UNL1        0.0401
     27 C         138.6381  150.3545  155.5457 C.ar    1  UNL1        0.1817
     28 C         139.3790  149.8035  154.3637 C.ar    1  UNL1        0.1814
     29 C         139.8266  148.3718  154.3598 C.ar    1  UNL1        0.0375
     30 O         139.5234  150.9029  153.3534 O.3     1  UNL1       -0.3948
     31 C         138.8716  152.1334  153.9112 C.3     1  UNL1        0.5892
     32 F         139.3012  152.7568  152.6164 F       1  UNL1       -0.1252
     33 F         138.3097  153.4942  154.1983 F       1  UNL1       -0.1252
     34 O         138.3245  151.7944  155.2661 O.3     1  UNL1       -0.3948
@<TRIPOS>BOND
     1     7     8    2
     2     8     9   am
     3     9     1    1
     4     1     2    1
     5     2     3    1
     6     3     4    1
     7     4    23    1
     8    23    24    1
     9    24    25   ar
    10    25    26   ar
    11    26    27   ar
    12    27    28   ar
    13    28    29   ar
    14    28    30    1
    15    30    31    1
    16    31    32    1
    17    31    33    1
    18    31    34    1
    19     4     5    1
    20     5     6    1
    21     8    11    1
    22    11    12   ar
    23    12    13   ar
    24    13    14    2
    25    13    15   ar
    26    15    16   ar
    27    16    17   ar
    28    17    18   ar
    29    18    19    1
    30    18    20   ar
    31    20    21   ar
    32    21    22   ar
    33     6     1    1
    34    22    11   ar
    35    29    24   ar
    36    21    15   ar
    37    34    27    1
    38     9    10    1
@<TRIPOS>MOLECULE
*****
 34 38 0 0 0
SMALL
GASTEIGER

@<TRIPOS>ATOM
      1 C         141.3434  139.6660  161.1411 C.3     1  UNL1        0.0747
      2 C         140.9150  140.7106  160.1535 C.3     1  UNL1        0.0369
      3 C         141.0791  140.4646  158.6829 C.3     1  UNL1        0.0741
      4 N         141.6716  139.1739  158.1999 N.3     1  UNL1       -0.2688
      5 C         142.1000  138.1293  159.1876 C.3     1  UNL1        0.0741
      6 C         141.9359  138.3754  160.6582 C.3     1  UNL1        0.0369
      7 O         138.7826  138.9142  162.5111 O.2     1  UNL1       -0.2668
      8 C         139.8989  139.5362  163.2966 C.2     1  UNL1        0.2806
      9 N         141.1793  139.9120  162.6116 N.am    1  UNL1       -0.2999
     10 H         141.9120  140.3202  163.1272 H       1  UNL1        0.1498
     11 C         139.7348  139.7822  164.7672 C.ar    1  UNL1        0.2014
     12 C         138.7588  138.9645  165.5601 C.ar    1  UNL1        0.0843
     13 C         138.5947  139.2105  167.0307 C.ar    1  UNL1        0.2018
     14 O         137.6187  138.3928  167.8236 O.2     1  UNL1       -0.2864
     15 C         139.4066  140.2743  167.7084 C.ar    1  UNL1        0.0737
     16 C         139.2425  140.5203  169.1789 C.ar    1  UNL1        0.0085
     17 C         140.0545  141.5840  169.8565 C.ar    1  UNL1        0.0299
     18 C         141.0305  142.4017  169.0636 C.ar    1  UNL1        0.1432
     19 F         141.8424  143.4655  169.7413 F       1  UNL1       -0.2041
     20 C         141.1946  142.1557  167.5931 C.ar    1  UNL1        0.0672
     21 C         140.3827  141.0920  166.9155 C.ar    1  UNL1        0.1508
     22 O         140.5467  140.8459  165.4448 O.2     1  UNL1       -0.4486
     23 C         141.8358  138.9279  156.7294 C.3     1  UNL1        0.0992
     24 C         142.2858  137.5834  156.2395 C.ar    1  UNL1       -0.0029
     25 C         143.7229  137.3618  155.8715 C.ar    1  UNL1        0.0004
     26 C         144.1729  136.0174  155.3816 C.ar    1  UNL1        0.0401
     27 C         143.1858  134.8946  155.2598 C.ar    1  UNL1        0.1817
     28 C         141.7487  135.1162  155.6278 C.ar    1  UNL1        0.1814
     29 C         141.2987  136.4606  156.1177 C.ar    1  UNL1        0.0375
     30 O         141.0095  133.8299  155.4057 O.3     1  UNL1       -0.3948
     31 C         141.9899  132.8134  154.9003 C.3     1  UNL1        0.5892
     32 F         140.7979  131.9031  154.8842 F       1  UNL1       -0.1252
     33 F         142.7211  131.6065  154.3916 F       1  UNL1       -0.1252
     34 O         143.3349  133.4713  154.8102 O.3     1  UNL1       -0.3948
@<TRIPOS>BOND
     1     7     8    2
     2     8     9   am
     3     9     1    1
     4     1     2    1
     5     2     3    1
     6     3     4    1
     7     4    23    1
     8    23    24    1
     9    24    25   ar
    10    25    26   ar
    11    26    27   ar
    12    27    28   ar
    13    28    29   ar
    14    28    30    1
    15    30    31    1
    16    31    32    1
    17    31    33    1
    18    31    34    1
    19     4     5    1
    20     5     6    1
    21     8    11    1
    22    11    12   ar
    23    12    13   ar
    24    13    14    2
    25    13    15   ar
    26    15    16   ar
    27    16    17   ar
    28    17    18   ar
    29    18    19    1
    30    18    20   ar
    31    20    21   ar
    32    21    22   ar
    33     6     1    1
    34    22    11   ar
    35    29    24   ar
    36    21    15   ar
    37    34    27    1
    38     9    10    1
@<TRIPOS>MOLECULE
*****
 34 38 0 0 0
SMALL
GASTEIGER

@<TRIPOS>ATOM
      1 C         143.7310  139.8938  160.4779 C.3     1  UNL1        0.0747
      2 C         143.4508  141.3457  160.2262 C.3     1  UNL1        0.0369
      3 C         143.5199  142.3297  161.3562 C.3     1  UNL1        0.0741
      4 N         143.8692  141.8619  162.7379 N.3     1  UNL1       -0.2688
      5 C         144.1494  140.4099  162.9896 C.3     1  UNL1        0.0741
      6 C         144.0802  139.4258  161.8596 C.3     1  UNL1        0.0369
      7 O         141.1779  138.4171  159.9288 O.2     1  UNL1       -0.2668
      8 C         142.3853  138.1714  159.0734 C.2     1  UNL1        0.2806
      9 N         143.6618  138.9097  159.3480 N.am    1  UNL1       -0.2999
     10 H         144.4543  138.7484  158.7865 H       1  UNL1        0.1498
     11 C         142.3162  137.1873  157.9434 C.ar    1  UNL1        0.2014
     12 C         141.3776  137.4254  156.7979 C.ar    1  UNL1        0.0843
     13 C         141.3085  136.4414  155.6679 C.ar    1  UNL1        0.2018
     14 O         140.3698  136.6795  154.5224 O.2     1  UNL1       -0.2864
     15 C         142.1781  135.2192  155.6834 C.ar    1  UNL1        0.0737
     16 C         142.1090  134.2352  154.5534 C.ar    1  UNL1        0.0085
     17 C         142.9785  133.0131  154.5689 C.ar    1  UNL1        0.0299
     18 C         143.9171  132.7750  155.7145 C.ar    1  UNL1        0.1432
     19 F         144.7867  131.5528  155.7300 F       1  UNL1       -0.2041
     20 C         143.9862  133.7590  156.8445 C.ar    1  UNL1        0.0672
     21 C         143.1167  134.9811  156.8289 C.ar    1  UNL1        0.1508
     22 O         143.1858  135.9652  157.9589 O.2     1  UNL1       -0.4486
     23 C         143.9383  142.8459  163.8679 C.3     1  UNL1        0.0992
     24 C         142.9786  142.7386  165.0156 C.ar    1  UNL1       -0.0029
     25 C         141.5158  142.9873  164.7958 C.ar    1  UNL1        0.0004
     26 C         140.5560  142.8800  165.9436 C.ar    1  UNL1        0.0401
     27 C         141.0591  142.5240  167.3111 C.ar    1  UNL1        0.1817
     28 C         142.5219  142.2754  167.5309 C.ar    1  UNL1        0.1814
     29 C         143.4816  142.3826  166.3832 C.ar    1  UNL1        0.0375
     30 O         142.7232  141.9441  168.9800 O.3     1  UNL1       -0.3948
     31 C         141.3848  141.9881  169.6558 C.3     1  UNL1        0.5892
     32 F         142.1676  141.6229  170.8820 F       1  UNL1       -0.1252
     33 F         140.2100  141.9558  170.5879 F       1  UNL1       -0.1252
     34 O         140.3563  142.3465  168.6244 O.3     1  UNL1       -0.3948
@<TRIPOS>BOND
     1     7     8    2
     2     8     9   am
     3     9     1    1
     4     1     2    1
     5     2     3    1
     6     3     4    1
     7     4    23    1
     8    23    24    1
     9    24    25   ar
    10    25    26   ar
    11    26    27   ar
    12    27    28   ar
    13    28    29   ar
    14    28    30    1
    15    30    31    1
    16    31    32    1
    17    31    33    1
    18    31    34    1
    19     4     5    1
    20     5     6    1
    21     8    11    1
    22    11    12   ar
    23    12    13   ar
    24    13    14    2
    25    13    15   ar
    26    15    16   ar
    27    16    17   ar
    28    17    18   ar
    29    18    19    1
    30    18    20   ar
    31    20    21   ar
    32    21    22   ar
    33     6     1    1
    34    22    11   ar
    35    29    24   ar
    36    21    15   ar
    37    34    27    1
    38     9    10    1
@<TRIPOS>MOLECULE
*****
 34 38 0 0 0
SMALL
GASTEIGER

@<TRIPOS>ATOM
      1 C         142.2331  139.0399  160.9069 C.3     1  UNL1        0.0747
      2 C         141.5901  140.3840  160.7345 C.3     1  UNL1        0.0369
      3 C         141.8031  141.4549  161.7630 C.3     1  UNL1        0.0741
      4 N         142.6592  141.1815  162.9641 N.3     1  UNL1       -0.2688
      5 C         143.3022  139.8374  163.1365 C.3     1  UNL1        0.0741
      6 C         143.0891  138.7665  162.1079 C.3     1  UNL1        0.0369
      7 O         143.6242  139.2097  158.2544 O.2     1  UNL1       -0.2668
      8 C         142.7156  138.0540  158.5521 C.2     1  UNL1        0.2806
      9 N         142.0200  137.9690  159.8784 N.am    1  UNL1       -0.2999
     10 H         141.4237  137.2105  160.0738 H       1  UNL1        0.1498
     11 C         142.5025  136.9830  157.5236 C.ar    1  UNL1        0.2014
     12 C         141.4155  137.1314  156.5006 C.ar    1  UNL1        0.0843
     13 C         141.2024  136.0605  155.4721 C.ar    1  UNL1        0.2018
     14 O         140.1154  136.2088  154.4491 O.2     1  UNL1       -0.2864
     15 C         142.0763  134.8413  155.4665 C.ar    1  UNL1        0.0737
     16 C         141.8632  133.7705  154.4380 C.ar    1  UNL1        0.0085
     17 C         142.7370  132.5514  154.4325 C.ar    1  UNL1        0.0299
     18 C         143.8240  132.4031  155.4555 C.ar    1  UNL1        0.1432
     19 F         144.6978  131.1838  155.4500 F       1  UNL1       -0.2041
     20 C         144.0371  133.4739  156.4840 C.ar    1  UNL1        0.0672
     21 C         143.1632  134.6930  156.4895 C.ar    1  UNL1        0.1508
     22 O         143.3763  135.7639  157.5181 O.2     1  UNL1       -0.4486
     23 C         142.8723  142.2524  163.9926 C.3     1  UNL1        0.0992
     24 C         142.4839  142.0085  165.4208 C.ar    1  UNL1       -0.0029
     25 C         143.4090  142.4149  166.5294 C.ar    1  UNL1        0.0004
     26 C         143.0206  142.1710  167.9576 C.ar    1  UNL1        0.0401
     27 C         141.7073  141.5207  168.2771 C.ar    1  UNL1        0.1817
     28 C         140.7823  141.1142  167.1685 C.ar    1  UNL1        0.1814
     29 C         141.1706  141.3582  165.7403 C.ar    1  UNL1        0.0375
     30 O         139.5619  140.4976  167.7855 O.3     1  UNL1       -0.3948
     31 C         139.7328  140.5229  169.2755 C.3     1  UNL1        0.5892
     32 F         138.3838  139.8674  169.2836 F       1  UNL1       -0.1252
     33 F         139.6217  140.4112  170.7672 F       1  UNL1       -0.1252
     34 O         141.0587  141.1552  169.5793 O.3     1  UNL1       -0.3948
@<TRIPOS>BOND
     1     7     8    2
     2     8     9   am
     3     9     1    1
     4     1     2    1
     5     2     3    1
     6     3     4    1
     7     4    23    1
     8    23    24    1
     9    24    25   ar
    10    25    26   ar
    11    26    27   ar
    12    27    28   ar
    13    28    29   ar
    14    28    30    1
    15    30    31    1
    16    31    32    1
    17    31    33    1
    18    31    34    1
    19     4     5    1
    20     5     6    1
    21     8    11    1
    22    11    12   ar
    23    12    13   ar
    24    13    14    2
    25    13    15   ar
    26    15    16   ar
    27    16    17   ar
    28    17    18   ar
    29    18    19    1
    30    18    20   ar
    31    20    21   ar
    32    21    22   ar
    33     6     1    1
    34    22    11   ar
    35    29    24   ar
    36    21    15   ar
    37    34    27    1
    38     9    10    1
@<TRIPOS>MOLECULE
*****
 34 38 0 0 0
SMALL
GASTEIGER

@<TRIPOS>ATOM
      1 C         141.8891  139.8616  160.6295 C.3     1  UNL1        0.0747
      2 C         140.8322  138.9764  160.0383 C.3     1  UNL1        0.0369
      3 C         141.0138  138.4078  158.6622 C.3     1  UNL1        0.0741
      4 N         142.2522  138.7243  157.8773 N.3     1  UNL1       -0.2688
      5 C         143.3091  139.6095  158.4685 C.3     1  UNL1        0.0741
      6 C         143.1275  140.1781  159.8447 C.3     1  UNL1        0.0369
      7 O         143.1727  138.5224  162.9873 O.2     1  UNL1       -0.2668
      8 C         142.3493  139.7606  163.1845 C.2     1  UNL1        0.2806
      9 N         141.7075  140.4302  162.0056 N.am    1  UNL1       -0.2999
     10 H         141.1671  141.2429  162.1351 H       1  UNL1        0.1498
     11 C         142.1677  140.3293  164.5607 C.ar    1  UNL1        0.2014
     12 C         143.1268  141.3596  165.0789 C.ar    1  UNL1        0.0843
     13 C         142.9453  141.9283  166.4550 C.ar    1  UNL1        0.2018
     14 O         143.9044  142.9586  166.9733 O.2     1  UNL1       -0.2864
     15 C         141.8046  141.4667  167.3129 C.ar    1  UNL1        0.0737
     16 C         141.6231  142.0354  168.6889 C.ar    1  UNL1        0.0085
     17 C         140.4825  141.5737  169.5467 C.ar    1  UNL1        0.0299
     18 C         139.5234  140.5434  169.0284 C.ar    1  UNL1        0.1432
     19 F         138.3827  140.0818  169.8863 F       1  UNL1       -0.2041
     20 C         139.7049  139.9747  167.6524 C.ar    1  UNL1        0.0672
     21 C         140.8455  140.4364  166.7946 C.ar    1  UNL1        0.1508
     22 O         141.0271  139.8677  165.4184 O.2     1  UNL1       -0.4486
     23 C         142.4338  138.1557  156.5012 C.3     1  UNL1        0.0992
     24 C         142.2922  136.6797  156.2749 C.ar    1  UNL1       -0.0029
     25 C         141.3686  136.1696  155.2088 C.ar    1  UNL1        0.0004
     26 C         141.2270  134.6935  154.9825 C.ar    1  UNL1        0.0401
     27 C         142.0090  133.7276  155.8223 C.ar    1  UNL1        0.1817
     28 C         142.9326  134.2377  156.8884 C.ar    1  UNL1        0.1814
     29 C         143.0742  135.7137  157.1147 C.ar    1  UNL1        0.0375
     30 O         143.5698  133.0544  157.5548 O.3     1  UNL1       -0.3948
     31 C         143.0399  131.8130  156.9005 C.3     1  UNL1        0.5892
     32 F         143.9326  131.1066  157.8771 F       1  UNL1       -0.1252
     33 F         142.6966  130.4240  156.4504 F       1  UNL1       -0.1252
     34 O         142.0753  132.2291  155.8298 O.3     1  UNL1       -0.3948
@<TRIPOS>BOND
     1     7     8    2
     2     8     9   am
     3     9     1    1
     4     1     2    1
     5     2     3    1
     6     3     4    1
     7     4    23    1
     8    23    24    1
     9    24    25   ar
    10    25    26   ar
    11    26    27   ar
    12    27    28   ar
    13    28    29   ar
    14    28    30    1
    15    30    31    1
    16    31    32    1
    17    31    33    1
    18    31    34    1
    19     4     5    1
    20     5     6    1
    21     8    11    1
    22    11    12   ar
    23    12    13   ar
    24    13    14    2
    25    13    15   ar
    26    15    16   ar
    27    16    17   ar
    28    17    18   ar
    29    18    19    1
    30    18    20   ar
    31    20    21   ar
    32    21    22   ar
    33     6     1    1
    34    22    11   ar
    35    29    24   ar
    36    21    15   ar
    37    34    27    1
    38     9    10    1
@<TRIPOS>MOLECULE
*****
 34 38 0 0 0
SMALL
GASTEIGER

@<TRIPOS>ATOM
      1 C         141.8854  138.3939  157.8773 C.3     1  UNL1        0.0747
      2 C         140.4979  138.4901  158.4391 C.3     1  UNL1        0.0369
      3 C         139.8515  139.8321  158.6155 C.3     1  UNL1        0.0741
      4 N         140.5926  141.0781  158.2302 N.3     1  UNL1       -0.2688
      5 C         141.9802  140.9819  157.6684 C.3     1  UNL1        0.0741
      6 C         142.6265  139.6398  157.4920 C.3     1  UNL1        0.0369
      7 O         141.2619  136.7353  155.4566 O.2     1  UNL1       -0.2668
      8 C         142.2200  136.2226  156.4906 C.2     1  UNL1        0.2806
      9 N         142.5317  137.0519  157.7009 N.am    1  UNL1       -0.2999
     10 H         143.1606  136.7154  158.3796 H       1  UNL1        0.1498
     11 C         142.8664  134.8805  156.3142 C.ar    1  UNL1        0.2014
     12 C         143.7810  134.3434  157.3749 C.ar    1  UNL1        0.0843
     13 C         144.4274  133.0014  157.1985 C.ar    1  UNL1        0.2018
     14 O         145.3420  132.4643  158.2592 O.2     1  UNL1       -0.2864
     15 C         144.1593  132.1964  155.9615 C.ar    1  UNL1        0.0737
     16 C         144.8057  130.8544  155.7851 C.ar    1  UNL1        0.0085
     17 C         144.5375  130.0496  154.5481 C.ar    1  UNL1        0.0299
     18 C         143.6229  130.5867  153.4875 C.ar    1  UNL1        0.1432
     19 F         143.3548  129.7818  152.2504 F       1  UNL1       -0.2041
     20 C         142.9765  131.9287  153.6638 C.ar    1  UNL1        0.0672
     21 C         143.2447  132.7336  154.9008 C.ar    1  UNL1        0.1508
     22 O         142.5983  134.0757  155.0772 O.2     1  UNL1       -0.4486
     23 C         139.9463  142.4201  158.4066 C.3     1  UNL1        0.0992
     24 C         139.9938  143.1060  159.7397 C.ar    1  UNL1       -0.0029
     25 C         141.1821  143.9428  160.1106 C.ar    1  UNL1        0.0004
     26 C         141.2297  144.6287  161.4438 C.ar    1  UNL1        0.0401
     27 C         140.0889  144.4779  162.4059 C.ar    1  UNL1        0.1817
     28 C         138.9006  143.6411  162.0350 C.ar    1  UNL1        0.1814
     29 C         138.8530  142.9552  160.7019 C.ar    1  UNL1        0.0375
     30 O         137.9330  143.6763  163.1807 O.3     1  UNL1       -0.3948
     31 C         138.5234  144.5349  164.2597 C.3     1  UNL1        0.5892
     32 F         137.2592  144.2046  164.9963 F       1  UNL1       -0.1252
     33 F         138.8495  145.3244  165.4927 F       1  UNL1       -0.1252
     34 O         139.8558  145.0303  163.7809 O.3     1  UNL1       -0.3948
@<TRIPOS>BOND
     1     7     8    2
     2     8     9   am
     3     9     1    1
     4     1     2    1
     5     2     3    1
     6     3     4    1
     7     4    23    1
     8    23    24    1
     9    24    25   ar
    10    25    26   ar
    11    26    27   ar
    12    27    28   ar
    13    28    29   ar
    14    28    30    1
    15    30    31    1
    16    31    32    1
    17    31    33    1
    18    31    34    1
    19     4     5    1
    20     5     6    1
    21     8    11    1
    22    11    12   ar
    23    12    13   ar
    24    13    14    2
    25    13    15   ar
    26    15    16   ar
    27    16    17   ar
    28    17    18   ar
    29    18    19    1
    30    18    20   ar
    31    20    21   ar
    32    21    22   ar
    33     6     1    1
    34    22    11   ar
    35    29    24   ar
    36    21    15   ar
    37    34    27    1
    38     9    10    1
