@<TRIPOS>MOLECULE
*****
 39 44 0 0 0
SMALL
GASTEIGER

@<TRIPOS>ATOM
      1 C         141.8400  138.0084  164.1454 C.3     1  UNL1        0.0932
      2 C         142.7627  138.4073  165.2587 C.3     1  UNL1        0.0286
      3 C         144.0339  139.1422  164.9523 C.3     1  UNL1        0.0193
      4 C         144.3825  139.4783  163.5325 C.3     1  UNL1        0.0700
      5 C         143.4598  139.0794  162.4192 C.3     1  UNL1        0.0193
      6 C         142.1885  138.3444  162.7257 C.3     1  UNL1        0.0286
      7 C         143.6748  139.0744  163.6512 C.3     1  UNL1        0.1562
      8 O         142.5254  138.4099  163.9282 O.3     1  UNL1       -0.3572
      9 N         145.6537  140.2132  163.2261 N.3     1  UNL1       -0.2926
     10 H         145.7892  140.1589  162.2166 H       1  UNL1        0.1236
     11 C         145.7948  141.6577  163.6049 C.3     1  UNL1        0.1152
     12 C         144.6368  142.5952  163.4315 C.ar    1  UNL1        0.0765
     13 C         144.0558  143.2979  164.6226 C.ar    1  UNL1        0.0193
     14 C         142.8978  144.2354  164.4492 C.ar    1  UNL1        0.0411
     15 C         142.3207  144.4701  163.0847 C.ar    1  UNL1        0.1706
     16 C         142.9016  143.7674  161.8936 C.ar    1  UNL1        0.1682
     17 N         144.0597  142.8299  162.0670 N.ar    1  UNL1       -0.2304
     18 N         142.3245  144.0022  160.5291 N.am    1  UNL1       -0.2640
     19 C         141.1665  144.9397  160.3557 C.2     1  UNL1        0.2674
     20 O         140.5894  145.1744  158.9912 O.2     1  UNL1       -0.2708
     21 C         140.5855  145.6424  161.5468 C.3     1  UNL1        0.2416
     22 C         139.4275  146.5799  161.3734 C.3     1  UNL1        0.0574
     23 O         141.1626  145.4077  162.9113 O.3     1  UNL1       -0.4671
     24 H         142.7058  143.5410  159.7474 H       1  UNL1        0.1565
     25 C         140.5688  137.2735  164.4517 C.3     1  UNL1        0.0320
     26 C         139.3570  138.0297  164.9099 C.3     1  UNL1        0.0327
     27 C         140.2432  142.0385  166.7523 C.ar    1  UNL1        0.2250
     28 C         139.8323  143.2960  166.0454 C.ar    1  UNL1        0.0593
     29 C         139.1260  143.2173  164.7245 C.ar    1  UNL1        0.0254
     30 C         138.8306  141.8811  164.1103 C.ar    1  UNL1        0.0990
     31 N         138.1244  141.8024  162.7893 N.ar    1  UNL1       -0.2400
     32 C         137.8290  140.4662  162.1752 C.ar    1  UNL1        0.1281
     33 C         138.2399  139.2086  162.8821 C.ar    1  UNL1        0.1566
     34 F         137.9445  137.8724  162.2679 F       1  UNL1       -0.2028
     35 C         138.9462  139.2872  164.2030 C.ar    1  UNL1        0.0261
     36 C         139.2415  140.6236  164.8172 C.ar    1  UNL1        0.1002
     37 N         139.9478  140.7022  166.1381 N.ar    1  UNL1       -0.2104
     38 C         140.5048  143.1126  169.1034 C.3     1  UNL1        0.2542
     39 O         140.9495  142.1171  168.0733 O.3     1  UNL1       -0.4561
@<TRIPOS>BOND
     1    38    39    1
     2    39    27    1
     3    27    28   ar
     4    28    29   ar
     5    29    30   ar
     6    30    31   ar
     7    31    32   ar
     8    32    33   ar
     9    33    34    1
    10    33    35   ar
    11    35    26    1
    12    26    25    1
    13    25     1    1
    14     1     2    1
    15     2     3    1
    16     3     4    1
    17     4     9    1
    18     9    11    1
    19    11    12    1
    20    12    13   ar
    21    13    14   ar
    22    14    15   ar
    23    15    16   ar
    24    16    17   ar
    25    16    18    1
    26    18    19   am
    27    19    20    2
    28    19    21    1
    29    21    22    1
    30    21    23    1
    31     4     5    1
    32     5     6    1
    33     4     7    1
    34     7     8    1
    35    35    36   ar
    36    36    37   ar
    37    37    27   ar
    38    36    30   ar
    39     6     1    1
    40     8     1    1
    41    17    12   ar
    42    23    15    1
    43     9    10    1
    44    18    24    1
@<TRIPOS>MOLECULE
*****
 39 44 0 0 0
SMALL
GASTEIGER

@<TRIPOS>ATOM
      1 C         141.3468  137.8818  164.3411 C.3     1  UNL1        0.0932
      2 C         142.2745  138.1744  165.4829 C.3     1  UNL1        0.0286
      3 C         143.6144  138.7953  165.2203 C.3     1  UNL1        0.0193
      4 C         144.0267  139.1236  163.8159 C.3     1  UNL1        0.0700
      5 C         143.0990  138.8310  162.6741 C.3     1  UNL1        0.0193
      6 C         141.7590  138.2100  162.9367 C.3     1  UNL1        0.0286
      7 C         143.2825  138.7841  163.9103 C.3     1  UNL1        0.1562
      8 O         142.0709  138.2227  164.1477 O.3     1  UNL1       -0.3572
      9 N         145.3666  139.7445  163.5533 N.3     1  UNL1       -0.2926
     10 H         145.5715  139.5958  162.5652 H       1  UNL1        0.1236
     11 C         145.5835  141.2036  163.8256 C.3     1  UNL1        0.1152
     12 C         144.4542  142.1752  163.6503 C.ar    1  UNL1        0.0765
     13 C         143.7445  142.7250  164.8520 C.ar    1  UNL1        0.0193
     14 C         142.6152  143.6966  164.6767 C.ar    1  UNL1        0.0411
     15 C         142.1957  144.1184  163.2997 C.ar    1  UNL1        0.1706
     16 C         142.9054  143.5687  162.0980 C.ar    1  UNL1        0.1682
     17 N         144.0347  142.5970  162.2733 N.ar    1  UNL1       -0.2304
     18 N         142.4858  143.9905  160.7211 N.am    1  UNL1       -0.2640
     19 C         141.3566  144.9621  160.5457 C.2     1  UNL1        0.2674
     20 O         140.9370  145.3839  159.1688 O.2     1  UNL1       -0.2708
     21 C         140.6468  145.5119  161.7474 C.3     1  UNL1        0.2416
     22 C         139.5176  146.4835  161.5721 C.3     1  UNL1        0.0574
     23 O         141.0664  145.0901  163.1244 O.3     1  UNL1       -0.4671
     24 H         142.9516  143.6296  159.9324 H       1  UNL1        0.1565
     25 C         140.0068  137.2609  164.6037 C.3     1  UNL1        0.0320
     26 C         138.8478  138.1221  165.0100 C.3     1  UNL1        0.0327
     27 C         137.9809  140.5369  161.3131 C.ar    1  UNL1        0.2250
     28 C         138.1287  142.0293  161.3404 C.ar    1  UNL1        0.0593
     29 C         138.5655  142.7168  162.5999 C.ar    1  UNL1        0.0254
     30 C         138.8544  141.9119  163.8322 C.ar    1  UNL1        0.0990
     31 N         139.2912  142.5994  165.0918 N.ar    1  UNL1       -0.2400
     32 C         139.5801  141.7945  166.3241 C.ar    1  UNL1        0.1281
     33 C         139.4323  140.3020  166.2969 C.ar    1  UNL1        0.1566
     34 F         139.7213  139.4971  167.5292 F       1  UNL1       -0.2028
     35 C         138.9956  139.6145  165.0373 C.ar    1  UNL1        0.0261
     36 C         138.7066  140.4195  163.8049 C.ar    1  UNL1        0.1002
     37 N         138.2699  139.7320  162.5453 N.ar    1  UNL1       -0.2104
     38 C         137.8001  140.4903  158.7217 C.3     1  UNL1        0.2542
     39 O         137.5441  139.8494  160.0535 O.3     1  UNL1       -0.4561
@<TRIPOS>BOND
     1    38    39    1
     2    39    27    1
     3    27    28   ar
     4    28    29   ar
     5    29    30   ar
     6    30    31   ar
     7    31    32   ar
     8    32    33   ar
     9    33    34    1
    10    33    35   ar
    11    35    26    1
    12    26    25    1
    13    25     1    1
    14     1     2    1
    15     2     3    1
    16     3     4    1
    17     4     9    1
    18     9    11    1
    19    11    12    1
    20    12    13   ar
    21    13    14   ar
    22    14    15   ar
    23    15    16   ar
    24    16    17   ar
    25    16    18    1
    26    18    19   am
    27    19    20    2
    28    19    21    1
    29    21    22    1
    30    21    23    1
    31     4     5    1
    32     5     6    1
    33     4     7    1
    34     7     8    1
    35    35    36   ar
    36    36    37   ar
    37    37    27   ar
    38    36    30   ar
    39     6     1    1
    40     8     1    1
    41    17    12   ar
    42    23    15    1
    43     9    10    1
    44    18    24    1
@<TRIPOS>MOLECULE
*****
 39 44 0 0 0
SMALL
GASTEIGER

@<TRIPOS>ATOM
      1 C         143.8103  142.7254  162.0365 C.3     1  UNL1        0.0932
      2 C         142.8820  143.1061  160.9215 C.3     1  UNL1        0.0286
      3 C         141.8522  144.1755  161.1351 C.3     1  UNL1        0.0193
      4 C         141.7507  144.8644  162.4637 C.3     1  UNL1        0.0700
      5 C         142.6790  144.4837  163.5788 C.3     1  UNL1        0.0193
      6 C         143.7088  143.4141  163.3651 C.3     1  UNL1        0.0286
      7 C         142.3309  144.2844  162.3942 C.3     1  UNL1        0.1562
      8 O         143.2622  143.3173  162.2010 O.3     1  UNL1       -0.3572
      9 N         140.7208  145.9338  162.6773 N.3     1  UNL1       -0.2926
     10 H         140.7859  146.5684  161.8814 H       1  UNL1        0.1236
     11 C         139.2740  145.5642  162.8193 C.3     1  UNL1        0.1152
     12 C         138.8935  144.2013  163.3167 C.ar    1  UNL1        0.0765
     13 C         137.9019  143.3741  162.5534 C.ar    1  UNL1        0.0193
     14 C         137.5213  142.0111  163.0508 C.ar    1  UNL1        0.0411
     15 C         138.1323  141.4753  164.3116 C.ar    1  UNL1        0.1706
     16 C         139.1237  142.3024  165.0750 C.ar    1  UNL1        0.1682
     17 N         139.5044  143.6654  164.5776 N.ar    1  UNL1       -0.2304
     18 N         139.7347  141.7665  166.3358 N.am    1  UNL1       -0.2640
     19 C         139.3541  140.4036  166.8332 C.2     1  UNL1        0.2674
     20 O         139.9650  139.8677  168.0940 O.2     1  UNL1       -0.2708
     21 C         138.3625  139.5764  166.0698 C.3     1  UNL1        0.2416
     22 C         137.9820  138.2134  166.5672 C.3     1  UNL1        0.0574
     23 O         137.7516  140.1123  164.8090 O.3     1  UNL1       -0.4671
     24 H         140.3854  142.3094  166.8368 H       1  UNL1        0.1565
     25 C         144.8402  141.6559  161.8229 C.3     1  UNL1        0.0320
     26 C         144.4249  140.2156  161.7650 C.3     1  UNL1        0.0327
     27 C         140.3751  138.2834  161.4256 C.ar    1  UNL1        0.2250
     28 C         139.7511  137.6339  162.6251 C.ar    1  UNL1        0.0593
     29 C         140.4770  137.6286  163.9377 C.ar    1  UNL1        0.0254
     30 C         141.8269  138.2726  164.0509 C.ar    1  UNL1        0.0990
     31 N         142.5528  138.2672  165.3635 N.ar    1  UNL1       -0.2400
     32 C         143.9028  138.9113  165.4766 C.ar    1  UNL1        0.1281
     33 C         144.5268  139.5608  164.2771 C.ar    1  UNL1        0.1566
     34 F         145.8767  140.2049  164.3903 F       1  UNL1       -0.2028
     35 C         143.8009  139.5662  162.9645 C.ar    1  UNL1        0.0261
     36 C         142.4509  138.9221  162.8514 C.ar    1  UNL1        0.1002
     37 N         141.7250  138.9275  161.5387 N.ar    1  UNL1       -0.2104
     38 C         139.0369  139.5583  159.5997 C.3     1  UNL1        0.2542
     39 O         139.6491  138.2888  160.1130 O.3     1  UNL1       -0.4561
@<TRIPOS>BOND
     1    38    39    1
     2    39    27    1
     3    27    28   ar
     4    28    29   ar
     5    29    30   ar
     6    30    31   ar
     7    31    32   ar
     8    32    33   ar
     9    33    34    1
    10    33    35   ar
    11    35    26    1
    12    26    25    1
    13    25     1    1
    14     1     2    1
    15     2     3    1
    16     3     4    1
    17     4     9    1
    18     9    11    1
    19    11    12    1
    20    12    13   ar
    21    13    14   ar
    22    14    15   ar
    23    15    16   ar
    24    16    17   ar
    25    16    18    1
    26    18    19   am
    27    19    20    2
    28    19    21    1
    29    21    22    1
    30    21    23    1
    31     4     5    1
    32     5     6    1
    33     4     7    1
    34     7     8    1
    35    35    36   ar
    36    36    37   ar
    37    37    27   ar
    38    36    30   ar
    39     6     1    1
    40     8     1    1
    41    17    12   ar
    42    23    15    1
    43     9    10    1
    44    18    24    1
@<TRIPOS>MOLECULE
*****
 39 44 0 0 0
SMALL
GASTEIGER

@<TRIPOS>ATOM
      1 C         138.8599  143.3852  161.8178 C.3     1  UNL1        0.0932
      2 C         137.7357  142.9582  162.7145 C.3     1  UNL1        0.0286
      3 C         137.2694  141.5326  162.7058 C.3     1  UNL1        0.0193
      4 C         137.9274  140.5338  161.8004 C.3     1  UNL1        0.0700
      5 C         139.0515  140.9607  160.9038 C.3     1  UNL1        0.0193
      6 C         139.5178  142.3865  160.9125 C.3     1  UNL1        0.0286
      7 C         138.2174  141.3038  161.7702 C.3     1  UNL1        0.1562
      8 O         138.6390  142.5929  161.7780 O.3     1  UNL1       -0.3572
      9 N         137.4611  139.1082  161.7917 N.3     1  UNL1       -0.2926
     10 H         137.2969  138.8580  160.8166 H       1  UNL1        0.1236
     11 C         138.3282  138.0319  162.3747 C.3     1  UNL1        0.1152
     12 C         139.2494  138.3468  163.5158 C.ar    1  UNL1        0.0765
     13 C         140.7294  138.1599  163.3586 C.ar    1  UNL1        0.0193
     14 C         141.6506  138.4748  164.4997 C.ar    1  UNL1        0.0411
     15 C         141.0918  138.9767  165.7981 C.ar    1  UNL1        0.1706
     16 C         139.6118  139.1637  165.9554 C.ar    1  UNL1        0.1682
     17 N         138.6906  138.8488  164.8142 N.ar    1  UNL1       -0.2304
     18 N         139.0530  139.6656  167.2538 N.am    1  UNL1       -0.2640
     19 C         139.9742  139.9805  168.3949 C.2     1  UNL1        0.2674
     20 O         139.4154  140.4824  169.6933 O.2     1  UNL1       -0.2708
     21 C         141.4542  139.7936  168.2377 C.3     1  UNL1        0.2416
     22 C         142.3754  140.1085  169.3788 C.3     1  UNL1        0.0574
     23 O         142.0130  139.2917  166.9393 O.3     1  UNL1       -0.4671
     24 H         138.0817  139.7883  167.3570 H       1  UNL1        0.1565
     25 C         139.3261  144.8108  161.8265 C.3     1  UNL1        0.0320
     26 C         140.2329  145.2967  162.9182 C.3     1  UNL1        0.0327
     27 C         144.0221  142.8841  162.6516 C.ar    1  UNL1        0.2250
     28 C         144.4060  141.9644  163.7726 C.ar    1  UNL1        0.0593
     29 C         143.5269  141.8489  164.9825 C.ar    1  UNL1        0.0254
     30 C         142.2639  142.6531  165.0714 C.ar    1  UNL1        0.0990
     31 N         141.3848  142.5376  166.2813 N.ar    1  UNL1       -0.2400
     32 C         140.1217  143.3418  166.3701 C.ar    1  UNL1        0.1281
     33 C         139.7377  144.2616  165.2491 C.ar    1  UNL1        0.1566
     34 F         138.4747  145.0657  165.3380 F       1  UNL1       -0.2028
     35 C         140.6168  144.3770  164.0392 C.ar    1  UNL1        0.0261
     36 C         141.8799  143.5728  163.9504 C.ar    1  UNL1        0.1002
     37 N         142.7590  143.6883  162.7405 N.ar    1  UNL1       -0.2104
     38 C         144.4170  142.5011  160.1124 C.3     1  UNL1        0.2542
     39 O         144.9012  142.9996  161.4417 O.3     1  UNL1       -0.4561
@<TRIPOS>BOND
     1    38    39    1
     2    39    27    1
     3    27    28   ar
     4    28    29   ar
     5    29    30   ar
     6    30    31   ar
     7    31    32   ar
     8    32    33   ar
     9    33    34    1
    10    33    35   ar
    11    35    26    1
    12    26    25    1
    13    25     1    1
    14     1     2    1
    15     2     3    1
    16     3     4    1
    17     4     9    1
    18     9    11    1
    19    11    12    1
    20    12    13   ar
    21    13    14   ar
    22    14    15   ar
    23    15    16   ar
    24    16    17   ar
    25    16    18    1
    26    18    19   am
    27    19    20    2
    28    19    21    1
    29    21    22    1
    30    21    23    1
    31     4     5    1
    32     5     6    1
    33     4     7    1
    34     7     8    1
    35    35    36   ar
    36    36    37   ar
    37    37    27   ar
    38    36    30   ar
    39     6     1    1
    40     8     1    1
    41    17    12   ar
    42    23    15    1
    43     9    10    1
    44    18    24    1
@<TRIPOS>MOLECULE
*****
 39 44 0 0 0
SMALL
GASTEIGER

@<TRIPOS>ATOM
      1 C         143.8967  143.4262  162.0674 C.3     1  UNL1        0.0932
      2 C         142.9062  143.4190  160.9409 C.3     1  UNL1        0.0286
      3 C         141.6851  144.2873  161.0104 C.3     1  UNL1        0.0193
      4 C         141.4544  145.1628  162.2064 C.3     1  UNL1        0.0700
      5 C         142.4449  145.1701  163.3328 C.3     1  UNL1        0.0193
      6 C         143.6661  144.3017  163.2633 C.3     1  UNL1        0.0286
      7 C         142.1382  144.7042  162.2134 C.3     1  UNL1        0.1562
      8 O         143.2424  143.9191  162.1506 O.3     1  UNL1       -0.3572
      9 N         140.2333  146.0311  162.2759 N.3     1  UNL1       -0.2926
     10 H         140.0741  146.3912  161.3349 H       1  UNL1        0.1236
     11 C         138.9300  145.4562  162.7458 C.3     1  UNL1        0.1152
     12 C         138.9008  144.1169  163.4205 C.ar    1  UNL1        0.0765
     13 C         139.0800  144.0217  164.9068 C.ar    1  UNL1        0.0193
     14 C         139.0509  142.6824  165.5814 C.ar    1  UNL1        0.0411
     15 C         138.8426  141.4381  164.7700 C.ar    1  UNL1        0.1706
     16 C         138.6634  141.5333  163.2838 C.ar    1  UNL1        0.1682
     17 N         138.6925  142.8727  162.6090 N.ar    1  UNL1       -0.2304
     18 N         138.4551  140.2890  162.4723 N.am    1  UNL1       -0.2640
     19 C         138.4260  138.9497  163.1470 C.2     1  UNL1        0.2674
     20 O         138.2177  137.7055  162.3355 O.2     1  UNL1       -0.2708
     21 C         138.6052  138.8545  164.6332 C.3     1  UNL1        0.2416
     22 C         138.5761  137.5152  165.3079 C.3     1  UNL1        0.0574
     23 O         138.8135  140.0987  165.4447 O.3     1  UNL1       -0.4671
     24 H         138.3375  140.3515  161.4968 H       1  UNL1        0.1565
     25 C         145.1179  142.5579  161.9979 C.3     1  UNL1        0.0320
     26 C         145.3509  141.5064  163.0420 C.3     1  UNL1        0.0327
     27 C         143.1452  141.5711  166.9638 C.ar    1  UNL1        0.2250
     28 C         142.0866  140.5466  167.2458 C.ar    1  UNL1        0.0593
     29 C         141.7632  139.5005  166.2206 C.ar    1  UNL1        0.0254
     30 C         142.4984  139.4789  164.9134 C.ar    1  UNL1        0.0990
     31 N         142.1750  138.4328  163.8881 N.ar    1  UNL1       -0.2400
     32 C         142.9102  138.4112  162.5809 C.ar    1  UNL1        0.1281
     33 C         143.9689  139.4358  162.2988 C.ar    1  UNL1        0.1566
     34 F         144.7041  139.4142  160.9916 F       1  UNL1       -0.2028
     35 C         144.2923  140.4819  163.3240 C.ar    1  UNL1        0.0261
     36 C         143.5570  140.5034  164.6313 C.ar    1  UNL1        0.1002
     37 N         143.8804  141.5495  165.6565 N.ar    1  UNL1       -0.2104
     38 C         142.7642  142.6126  169.3133 C.3     1  UNL1        0.2542
     39 O         143.4686  142.6172  167.9890 O.3     1  UNL1       -0.4561
@<TRIPOS>BOND
     1    38    39    1
     2    39    27    1
     3    27    28   ar
     4    28    29   ar
     5    29    30   ar
     6    30    31   ar
     7    31    32   ar
     8    32    33   ar
     9    33    34    1
    10    33    35   ar
    11    35    26    1
    12    26    25    1
    13    25     1    1
    14     1     2    1
    15     2     3    1
    16     3     4    1
    17     4     9    1
    18     9    11    1
    19    11    12    1
    20    12    13   ar
    21    13    14   ar
    22    14    15   ar
    23    15    16   ar
    24    16    17   ar
    25    16    18    1
    26    18    19   am
    27    19    20    2
    28    19    21    1
    29    21    22    1
    30    21    23    1
    31     4     5    1
    32     5     6    1
    33     4     7    1
    34     7     8    1
    35    35    36   ar
    36    36    37   ar
    37    37    27   ar
    38    36    30   ar
    39     6     1    1
    40     8     1    1
    41    17    12   ar
    42    23    15    1
    43     9    10    1
    44    18    24    1
@<TRIPOS>MOLECULE
*****
 39 44 0 0 0
SMALL
GASTEIGER

@<TRIPOS>ATOM
      1 C         140.5812  144.6732  162.2415 C.3     1  UNL1        0.0932
      2 C         141.0571  143.6564  161.2467 C.3     1  UNL1        0.0286
      3 C         142.4937  143.2249  161.2441 C.3     1  UNL1        0.0193
      4 C         143.4545  143.8102  162.2363 C.3     1  UNL1        0.0700
      5 C         142.9786  144.8270  163.2311 C.3     1  UNL1        0.0193
      6 C         141.5419  145.2585  163.2337 C.3     1  UNL1        0.0286
      7 C         142.6768  144.0777  162.2763 C.3     1  UNL1        0.1562
      8 O         141.3778  144.4679  162.2787 O.3     1  UNL1       -0.3572
      9 N         144.8910  143.3787  162.2336 N.3     1  UNL1       -0.2926
     10 H         145.4117  144.0856  162.7528 H       1  UNL1        0.1236
     11 C         145.2755  142.0479  162.8092 C.3     1  UNL1        0.1152
     12 C         144.4593  141.4444  163.9134 C.ar    1  UNL1        0.0765
     13 C         143.9159  140.0535  163.7704 C.ar    1  UNL1        0.0193
     14 C         143.0997  139.4499  164.8746 C.ar    1  UNL1        0.0411
     15 C         142.8268  140.2371  166.1220 C.ar    1  UNL1        0.1706
     16 C         143.3702  141.6278  166.2651 C.ar    1  UNL1        0.1682
     17 N         144.1865  142.2315  165.1608 N.ar    1  UNL1       -0.2304
     18 N         143.0974  142.4150  167.5125 N.am    1  UNL1       -0.2640
     19 C         142.2812  141.8114  168.6168 C.2     1  UNL1        0.2674
     20 O         142.0084  142.5986  169.8641 O.2     1  UNL1       -0.2708
     21 C         141.7378  140.4206  168.4737 C.3     1  UNL1        0.2416
     22 C         140.9216  139.8170  169.5780 C.3     1  UNL1        0.0574
     23 O         142.0106  139.6334  167.2263 O.3     1  UNL1       -0.4671
     24 H         143.4540  143.3278  167.6064 H       1  UNL1        0.1565
     25 C         139.1447  145.1047  162.2442 C.3     1  UNL1        0.0320
     26 C         138.0975  144.2217  162.8556 C.3     1  UNL1        0.0327
     27 C         137.6860  140.0885  161.1244 C.ar    1  UNL1        0.2250
     28 C         138.0924  138.8926  161.9335 C.ar    1  UNL1        0.0593
     29 C         138.6359  139.0745  163.3197 C.ar    1  UNL1        0.0254
     30 C         138.7731  140.4522  163.8968 C.ar    1  UNL1        0.0990
     31 N         139.3166  140.6340  165.2829 N.ar    1  UNL1       -0.2400
     32 C         139.4538  142.0117  165.8600 C.ar    1  UNL1        0.1281
     33 C         139.0474  143.2077  165.0509 C.ar    1  UNL1        0.1566
     34 F         139.1846  144.5854  165.6279 F       1  UNL1       -0.2028
     35 C         138.5038  143.0259  163.6647 C.ar    1  UNL1        0.0261
     36 C         138.3667  141.6481  163.0876 C.ar    1  UNL1        0.1002
     37 N         137.8231  141.4662  161.7015 N.ar    1  UNL1       -0.2104
     38 C         137.8214  140.5651  158.5740 C.3     1  UNL1        0.2542
     39 O         137.1424  139.9067  159.7382 O.3     1  UNL1       -0.4561
@<TRIPOS>BOND
     1    38    39    1
     2    39    27    1
     3    27    28   ar
     4    28    29   ar
     5    29    30   ar
     6    30    31   ar
     7    31    32   ar
     8    32    33   ar
     9    33    34    1
    10    33    35   ar
    11    35    26    1
    12    26    25    1
    13    25     1    1
    14     1     2    1
    15     2     3    1
    16     3     4    1
    17     4     9    1
    18     9    11    1
    19    11    12    1
    20    12    13   ar
    21    13    14   ar
    22    14    15   ar
    23    15    16   ar
    24    16    17   ar
    25    16    18    1
    26    18    19   am
    27    19    20    2
    28    19    21    1
    29    21    22    1
    30    21    23    1
    31     4     5    1
    32     5     6    1
    33     4     7    1
    34     7     8    1
    35    35    36   ar
    36    36    37   ar
    37    37    27   ar
    38    36    30   ar
    39     6     1    1
    40     8     1    1
    41    17    12   ar
    42    23    15    1
    43     9    10    1
    44    18    24    1
@<TRIPOS>MOLECULE
*****
 39 44 0 0 0
SMALL
GASTEIGER

@<TRIPOS>ATOM
      1 C         141.6867  145.0977  162.5148 C.3     1  UNL1        0.0932
      2 C         142.1007  144.2555  161.3446 C.3     1  UNL1        0.0286
      3 C         143.3084  143.3718  161.4466 C.3     1  UNL1        0.0193
      4 C         144.1022  143.3302  162.7187 C.3     1  UNL1        0.0700
      5 C         143.6881  144.1724  163.8889 C.3     1  UNL1        0.0193
      6 C         142.4803  145.0562  163.7869 C.3     1  UNL1        0.0286
      7 C         143.4478  143.8300  162.7103 C.3     1  UNL1        0.1562
      8 O         142.3558  144.6291  162.6181 O.3     1  UNL1       -0.3572
      9 N         145.3099  142.4465  162.8207 N.3     1  UNL1       -0.2926
     10 H         145.9811  142.9327  163.4152 H       1  UNL1        0.1236
     11 C         145.1773  141.0552  163.3653 C.3     1  UNL1        0.1152
     12 C         143.8284  140.5279  163.7556 C.ar    1  UNL1        0.0765
     13 C         143.0206  139.7332  162.7726 C.ar    1  UNL1        0.0193
     14 C         141.6717  139.2059  163.1629 C.ar    1  UNL1        0.0411
     15 C         141.1305  139.4732  164.5361 C.ar    1  UNL1        0.1706
     16 C         141.9382  140.2678  165.5190 C.ar    1  UNL1        0.1682
     17 N         143.2872  140.7952  165.1288 N.ar    1  UNL1       -0.2304
     18 N         141.3970  140.5351  166.8922 N.am    1  UNL1       -0.2640
     19 C         140.0481  140.0078  167.2825 C.2     1  UNL1        0.2674
     20 O         139.5069  140.2751  168.6557 O.2     1  UNL1       -0.2708
     21 C         139.2403  139.2132  166.2996 C.3     1  UNL1        0.2416
     22 C         137.8914  138.6859  166.6898 C.3     1  UNL1        0.0574
     23 O         139.7815  138.9459  164.9264 O.3     1  UNL1       -0.4671
     24 H         141.9272  141.0567  167.5373 H       1  UNL1        0.1565
     25 C         140.4790  145.9814  162.4128 C.3     1  UNL1        0.0320
     26 C         139.1419  145.3888  162.0791 C.3     1  UNL1        0.0327
     27 C         138.3855  141.7994  159.4727 C.ar    1  UNL1        0.2250
     28 C         137.9663  140.4986  160.0909 C.ar    1  UNL1        0.0593
     29 C         137.7993  140.3942  161.5779 C.ar    1  UNL1        0.0254
     30 C         138.0515  141.5907  162.4467 C.ar    1  UNL1        0.0990
     31 N         137.8845  141.4863  163.9337 N.ar    1  UNL1       -0.2400
     32 C         138.1366  142.6828  164.8025 C.ar    1  UNL1        0.1281
     33 C         138.5558  143.9837  164.1844 C.ar    1  UNL1        0.1566
     34 F         138.8079  145.1801  165.0532 F       1  UNL1       -0.2028
     35 C         138.7228  144.0880  162.6973 C.ar    1  UNL1        0.0261
     36 C         138.4706  142.8915  161.8285 C.ar    1  UNL1        0.1002
     37 N         138.6376  142.9958  160.3415 N.ar    1  UNL1       -0.2104
     38 C         137.5048  141.3404  157.0719 C.3     1  UNL1        0.2542
     39 O         138.5525  141.9037  157.9857 O.3     1  UNL1       -0.4561
@<TRIPOS>BOND
     1    38    39    1
     2    39    27    1
     3    27    28   ar
     4    28    29   ar
     5    29    30   ar
     6    30    31   ar
     7    31    32   ar
     8    32    33   ar
     9    33    34    1
    10    33    35   ar
    11    35    26    1
    12    26    25    1
    13    25     1    1
    14     1     2    1
    15     2     3    1
    16     3     4    1
    17     4     9    1
    18     9    11    1
    19    11    12    1
    20    12    13   ar
    21    13    14   ar
    22    14    15   ar
    23    15    16   ar
    24    16    17   ar
    25    16    18    1
    26    18    19   am
    27    19    20    2
    28    19    21    1
    29    21    22    1
    30    21    23    1
    31     4     5    1
    32     5     6    1
    33     4     7    1
    34     7     8    1
    35    35    36   ar
    36    36    37   ar
    37    37    27   ar
    38    36    30   ar
    39     6     1    1
    40     8     1    1
    41    17    12   ar
    42    23    15    1
    43     9    10    1
    44    18    24    1
@<TRIPOS>MOLECULE
*****
 39 44 0 0 0
SMALL
GASTEIGER

@<TRIPOS>ATOM
      1 C         141.1275  144.8775  162.8690 C.3     1  UNL1        0.0932
      2 C         141.3759  144.2243  161.5417 C.3     1  UNL1        0.0286
      3 C         142.7338  143.6753  161.2184 C.3     1  UNL1        0.0193
      4 C         143.8434  143.7794  162.2225 C.3     1  UNL1        0.0700
      5 C         143.5950  144.4326  163.5498 C.3     1  UNL1        0.0193
      6 C         142.2370  144.9816  163.8730 C.3     1  UNL1        0.0286
      7 C         143.1161  144.0949  162.4448 C.3     1  UNL1        0.1562
      8 O         141.8883  144.5914  162.7372 O.3     1  UNL1       -0.3572
      9 N         145.2014  143.2304  161.8992 N.3     1  UNL1       -0.2926
     10 H         145.8781  143.8017  162.4052 H       1  UNL1        0.1236
     11 C         145.5250  141.7990  162.2097 C.3     1  UNL1        0.1152
     12 C         144.5147  140.9354  162.9049 C.ar    1  UNL1        0.0765
     13 C         144.6908  140.5938  164.3549 C.ar    1  UNL1        0.0193
     14 C         143.6805  139.7302  165.0501 C.ar    1  UNL1        0.0411
     15 C         142.4939  139.2081  164.2954 C.ar    1  UNL1        0.1706
     16 C         142.3178  139.5497  162.8455 C.ar    1  UNL1        0.1682
     17 N         143.3281  140.4133  162.1502 N.ar    1  UNL1       -0.2304
     18 N         141.1312  139.0276  162.0908 N.am    1  UNL1       -0.2640
     19 C         140.1209  138.1640  162.7860 C.2     1  UNL1        0.2674
     20 O         138.9344  137.6419  162.0313 O.2     1  UNL1       -0.2708
     21 C         140.2970  137.8224  164.2360 C.3     1  UNL1        0.2416
     22 C         139.2867  136.9588  164.9312 C.3     1  UNL1        0.0574
     23 O         141.4836  138.3445  164.9907 O.3     1  UNL1       -0.4671
     24 H         141.0156  139.2518  161.1391 H       1  UNL1        0.1565
     25 C         139.7696  145.4265  163.1922 C.3     1  UNL1        0.0320
     26 C         138.9811  144.8540  164.3327 C.3     1  UNL1        0.0327
     27 C         140.4760  142.3658  167.7713 C.ar    1  UNL1        0.2250
     28 C         140.1822  140.8956  167.8166 C.ar    1  UNL1        0.0593
     29 C         139.3902  140.2547  166.7157 C.ar    1  UNL1        0.0254
     30 C         138.8919  141.0841  165.5695 C.ar    1  UNL1        0.0990
     31 N         138.0999  140.4432  164.4686 N.ar    1  UNL1       -0.2400
     32 C         137.6016  141.2726  163.3224 C.ar    1  UNL1        0.1281
     33 C         137.8953  142.7429  163.2770 C.ar    1  UNL1        0.1566
     34 F         137.3970  143.5723  162.1309 F       1  UNL1       -0.2028
     35 C         138.6873  143.3838  164.3780 C.ar    1  UNL1        0.0261
     36 C         139.1856  142.5543  165.5242 C.ar    1  UNL1        0.1002
     37 N         139.9777  143.1952  166.6251 N.ar    1  UNL1       -0.2104
     38 C         140.5789  143.8689  169.8879 C.3     1  UNL1        0.2542
     39 O         141.2680  143.0067  168.8722 O.3     1  UNL1       -0.4561
@<TRIPOS>BOND
     1    38    39    1
     2    39    27    1
     3    27    28   ar
     4    28    29   ar
     5    29    30   ar
     6    30    31   ar
     7    31    32   ar
     8    32    33   ar
     9    33    34    1
    10    33    35   ar
    11    35    26    1
    12    26    25    1
    13    25     1    1
    14     1     2    1
    15     2     3    1
    16     3     4    1
    17     4     9    1
    18     9    11    1
    19    11    12    1
    20    12    13   ar
    21    13    14   ar
    22    14    15   ar
    23    15    16   ar
    24    16    17   ar
    25    16    18    1
    26    18    19   am
    27    19    20    2
    28    19    21    1
    29    21    22    1
    30    21    23    1
    31     4     5    1
    32     5     6    1
    33     4     7    1
    34     7     8    1
    35    35    36   ar
    36    36    37   ar
    37    37    27   ar
    38    36    30   ar
    39     6     1    1
    40     8     1    1
    41    17    12   ar
    42    23    15    1
    43     9    10    1
    44    18    24    1
@<TRIPOS>MOLECULE
*****
 39 44 0 0 0
SMALL
GASTEIGER

@<TRIPOS>ATOM
      1 C         142.0571  140.3323  164.9258 C.3     1  UNL1        0.0932
      2 C         141.2248  139.9142  163.7500 C.3     1  UNL1        0.0286
      3 C         139.8197  140.4195  163.6081 C.3     1  UNL1        0.0193
      4 C         139.2467  141.3430  164.6421 C.3     1  UNL1        0.0700
      5 C         140.0790  141.7610  165.8179 C.3     1  UNL1        0.0193
      6 C         141.4842  141.2557  165.9598 C.3     1  UNL1        0.0286
      7 C         140.0216  141.0922  164.7627 C.3     1  UNL1        0.1562
      8 O         141.2922  140.6352  164.8910 O.3     1  UNL1       -0.3572
      9 N         137.8416  141.8483  164.5003 N.3     1  UNL1       -0.2926
     10 H         137.4112  141.7844  165.4228 H       1  UNL1        0.1236
     11 C         137.5920  143.2408  164.0015 C.3     1  UNL1        0.1152
     12 C         138.5155  143.8517  162.9896 C.ar    1  UNL1        0.0765
     13 C         139.5057  144.8962  163.4121 C.ar    1  UNL1        0.0193
     14 C         140.4292  145.5072  162.4003 C.ar    1  UNL1        0.0411
     15 C         140.3625  145.0736  160.9658 C.ar    1  UNL1        0.1706
     16 C         139.3723  144.0291  160.5433 C.ar    1  UNL1        0.1682
     17 N         138.4488  143.4181  161.5552 N.ar    1  UNL1       -0.2304
     18 N         139.3057  143.5956  159.1089 N.am    1  UNL1       -0.2640
     19 C         140.2291  144.2065  158.0970 C.2     1  UNL1        0.2674
     20 O         140.1624  143.7730  156.6626 O.2     1  UNL1       -0.2708
     21 C         141.2193  145.2511  158.5195 C.3     1  UNL1        0.2416
     22 C         142.1428  145.8620  157.5077 C.3     1  UNL1        0.0574
     23 O         141.2860  145.6846  159.9540 O.3     1  UNL1       -0.4671
     24 H         138.6558  142.9100  158.8315 H       1  UNL1        0.1565
     25 C         143.4622  139.8270  165.0677 C.3     1  UNL1        0.0320
     26 C         144.5828  140.5135  164.3444 C.3     1  UNL1        0.0327
     27 C         143.7800  140.2257  159.9259 C.ar    1  UNL1        0.2250
     28 C         143.5093  141.4681  159.1304 C.ar    1  UNL1        0.0593
     29 C         143.5061  142.8066  159.8076 C.ar    1  UNL1        0.0254
     30 C         143.7737  142.9025  161.2804 C.ar    1  UNL1        0.0990
     31 N         143.7705  144.2409  161.9576 N.ar    1  UNL1       -0.2400
     32 C         144.0381  144.3369  163.4304 C.ar    1  UNL1        0.1281
     33 C         144.3089  143.0944  164.2260 C.ar    1  UNL1        0.1566
     34 F         144.5765  143.1903  165.6988 F       1  UNL1       -0.2028
     35 C         144.3120  141.7560  163.5488 C.ar    1  UNL1        0.0261
     36 C         144.0444  141.6601  162.0759 C.ar    1  UNL1        0.1002
     37 N         144.0476  140.3216  161.3987 N.ar    1  UNL1       -0.2104
     38 C         142.7523  137.8602  159.6125 C.3     1  UNL1        0.2542
     39 O         143.7831  138.8873  159.2487 O.3     1  UNL1       -0.4561
@<TRIPOS>BOND
     1    38    39    1
     2    39    27    1
     3    27    28   ar
     4    28    29   ar
     5    29    30   ar
     6    30    31   ar
     7    31    32   ar
     8    32    33   ar
     9    33    34    1
    10    33    35   ar
    11    35    26    1
    12    26    25    1
    13    25     1    1
    14     1     2    1
    15     2     3    1
    16     3     4    1
    17     4     9    1
    18     9    11    1
    19    11    12    1
    20    12    13   ar
    21    13    14   ar
    22    14    15   ar
    23    15    16   ar
    24    16    17   ar
    25    16    18    1
    26    18    19   am
    27    19    20    2
    28    19    21    1
    29    21    22    1
    30    21    23    1
    31     4     5    1
    32     5     6    1
    33     4     7    1
    34     7     8    1
    35    35    36   ar
    36    36    37   ar
    37    37    27   ar
    38    36    30   ar
    39     6     1    1
    40     8     1    1
    41    17    12   ar
    42    23    15    1
    43     9    10    1
    44    18    24    1
