@<TRIPOS>MOLECULE
*****
 28 30 0 0 0
SMALL
GASTEIGER

@<TRIPOS>ATOM
      1 C         140.7633  140.9610  169.9070 C.3     1  UNL1        0.0975
      2 C         140.7508  141.6063  171.2611 C.3     1  UNL1        0.0781
      3 N         142.1212  142.1562  171.5252 N.3     1  UNL1       -0.2968
      4 C         142.9806  141.8506  170.3343 C.3     1  UNL1        0.0735
      5 C         142.1414  141.1120  169.3343 C.3     1  UNL1        0.0480
      6 H         142.5153  141.7184  172.3579 H       1  UNL1        0.1233
      7 C         142.5998  140.6121  167.9964 C.ar    1  UNL1       -0.0207
      8 C         142.8805  139.1520  167.7972 C.ar    1  UNL1       -0.0043
      9 C         143.3389  138.6522  166.4594 C.ar    1  UNL1        0.0035
     10 C         143.5166  139.6122  165.3206 C.ar    1  UNL1        0.0714
     11 C         143.2359  141.0722  165.5197 C.ar    1  UNL1        0.0035
     12 C         142.7775  141.5720  166.8576 C.ar    1  UNL1       -0.0043
     13 C         143.9750  139.1123  163.9827 C.3     1  UNL1        0.4186
     14 F         144.4333  138.6124  162.6448 F       1  UNL1       -0.1659
     15 F         145.3687  139.5758  164.2870 F       1  UNL1       -0.1659
     16 F         142.5812  138.6488  163.6783 F       1  UNL1       -0.1659
     17 N         139.6303  140.0224  167.7656 N.am    1  UNL1       -0.3004
     18 C         139.6016  140.2836  169.2424 C.2     1  UNL1        0.2240
     19 O         138.4112  139.8674  170.0547 O.2     1  UNL1       -0.2750
     20 H         140.4116  140.2956  167.2325 H       1  UNL1        0.1497
     21 C         138.4686  139.3451  167.1011 C.3     1  UNL1        0.1163
     22 C         138.6176  138.2283  161.2078 C.3     1  UNL1        0.0310
     23 C         138.5803  138.5075  162.6811 C.ar    1  UNL1       -0.0219
     24 C         138.1678  139.8614  163.1777 C.ar    1  UNL1       -0.0045
     25 C         138.1306  140.1406  164.6510 C.ar    1  UNL1       -0.0029
     26 C         138.5059  139.0659  165.6277 C.ar    1  UNL1       -0.0026
     27 C         138.9184  137.7119  165.1311 C.ar    1  UNL1       -0.0029
     28 C         138.9556  137.4328  163.6578 C.ar    1  UNL1       -0.0045
@<TRIPOS>BOND
     1    22    23    1
     2    23    24   ar
     3    24    25   ar
     4    25    26   ar
     5    26    21    1
     6    21    17    1
     7    17    18   am
     8    18    19    2
     9     1    18    1
    10     1     2    1
    11     2     3    1
    12     3     4    1
    13     4     5    1
    14     5     7    1
    15     7     8   ar
    16     8     9   ar
    17     9    10   ar
    18    10    13    1
    19    13    14    1
    20    13    15    1
    21    13    16    1
    22    10    11   ar
    23    11    12   ar
    24    26    27   ar
    25    27    28   ar
    26    28    23   ar
    27     5     1    1
    28    12     7   ar
    29    17    20    1
    30     3     6    1
@<TRIPOS>MOLECULE
*****
 28 30 0 0 0
SMALL
GASTEIGER

@<TRIPOS>ATOM
      1 C         141.5148  140.2409  169.6695 C.3     1  UNL1        0.0975
      2 C         141.7123  140.6415  171.1015 C.3     1  UNL1        0.0781
      3 N         140.5579  141.5108  171.5032 N.3     1  UNL1       -0.2968
      4 C         139.6468  141.6476  170.3194 C.3     1  UNL1        0.0735
      5 C         140.2383  140.8628  169.1862 C.3     1  UNL1        0.0480
      6 H         140.8985  142.4298  171.7859 H       1  UNL1        0.1233
      7 C         139.6554  140.7242  167.8110 C.ar    1  UNL1       -0.0207
      8 C         139.9229  141.7743  166.7738 C.ar    1  UNL1       -0.0043
      9 C         139.3401  141.6357  165.3986 C.ar    1  UNL1        0.0035
     10 C         138.4898  140.4470  165.0606 C.ar    1  UNL1        0.0714
     11 C         138.2224  139.3970  166.0978 C.ar    1  UNL1        0.0035
     12 C         138.8052  139.5356  167.4730 C.ar    1  UNL1       -0.0043
     13 C         137.9070  140.3084  163.6854 C.3     1  UNL1        0.4186
     14 F         137.3241  140.1699  162.3103 F       1  UNL1       -0.1659
     15 F         138.4527  138.9142  163.5947 F       1  UNL1       -0.1659
     16 F         137.3612  141.7028  163.7762 F       1  UNL1       -0.1659
     17 N         142.5709  139.5939  167.3857 N.am    1  UNL1       -0.3004
     18 C         142.4328  139.3712  168.8626 C.2     1  UNL1        0.2240
     19 O         143.2125  138.2790  169.5326 O.2     1  UNL1       -0.2750
     20 H         142.0592  140.3108  166.9459 H       1  UNL1        0.1497
     21 C         143.4888  138.7242  166.5787 C.3     1  UNL1        0.1163
     22 C         142.4649  137.9013  160.7243 C.3     1  UNL1        0.0310
     23 C         142.7209  138.1070  162.1879 C.ar    1  UNL1       -0.0219
     24 C         143.9836  138.7776  162.6414 C.ar    1  UNL1       -0.0045
     25 C         144.2396  138.9833  164.1051 C.ar    1  UNL1       -0.0029
     26 C         143.2328  138.5185  165.1151 C.ar    1  UNL1       -0.0026
     27 C         141.9701  137.8479  164.6616 C.ar    1  UNL1       -0.0029
     28 C         141.7141  137.6422  163.1980 C.ar    1  UNL1       -0.0045
@<TRIPOS>BOND
     1    22    23    1
     2    23    24   ar
     3    24    25   ar
     4    25    26   ar
     5    26    21    1
     6    21    17    1
     7    17    18   am
     8    18    19    2
     9     1    18    1
    10     1     2    1
    11     2     3    1
    12     3     4    1
    13     4     5    1
    14     5     7    1
    15     7     8   ar
    16     8     9   ar
    17     9    10   ar
    18    10    13    1
    19    13    14    1
    20    13    15    1
    21    13    16    1
    22    10    11   ar
    23    11    12   ar
    24    26    27   ar
    25    27    28   ar
    26    28    23   ar
    27     5     1    1
    28    12     7   ar
    29    17    20    1
    30     3     6    1
@<TRIPOS>MOLECULE
*****
 28 30 0 0 0
SMALL
GASTEIGER

@<TRIPOS>ATOM
      1 C         140.5986  141.1779  170.0286 C.3     1  UNL1        0.0975
      2 C         140.9248  141.1814  171.4927 C.3     1  UNL1        0.0781
      3 N         142.0714  142.1238  171.7100 N.3     1  UNL1       -0.2968
      4 C         142.4538  142.7029  170.3801 C.3     1  UNL1        0.0735
      5 C         141.5436  142.1183  169.3410 C.3     1  UNL1        0.0480
      6 H         142.8633  141.6194  172.1085 H       1  UNL1        0.1233
      7 C         141.5731  142.4209  167.8722 C.ar    1  UNL1       -0.0207
      8 C         140.3585  142.9877  167.1986 C.ar    1  UNL1       -0.0043
      9 C         140.3881  143.2903  165.7298 C.ar    1  UNL1        0.0035
     10 C         141.6322  143.0262  164.9344 C.ar    1  UNL1        0.0714
     11 C         142.8467  142.4595  165.6080 C.ar    1  UNL1        0.0035
     12 C         142.8171  142.1569  167.0768 C.ar    1  UNL1       -0.0043
     13 C         141.6618  143.3289  163.4656 C.3     1  UNL1        0.4186
     14 F         141.6913  143.6314  161.9967 F       1  UNL1       -0.1659
     15 F         142.7099  144.3755  163.7023 F       1  UNL1       -0.1659
     16 F         140.6136  142.2822  163.2288 F       1  UNL1       -0.1659
     17 N         139.6706  139.9421  167.9402 N.am    1  UNL1       -0.3004
     18 C         139.5173  140.3751  169.3681 C.2     1  UNL1        0.2240
     19 O         138.2827  140.0052  170.1356 O.2     1  UNL1       -0.2750
     20 H         140.4809  140.1849  167.4365 H       1  UNL1        0.1497
     21 C         138.5893  139.1393  167.2797 C.3     1  UNL1        0.1163
     22 C         138.3552  138.7727  161.2954 C.3     1  UNL1        0.0310
     23 C         138.4137  138.8644  162.7915 C.ar    1  UNL1       -0.0219
     24 C         138.8275  137.6709  163.6004 C.ar    1  UNL1       -0.0045
     25 C         138.8860  137.7626  165.0965 C.ar    1  UNL1       -0.0029
     26 C         138.5308  139.0477  165.7836 C.ar    1  UNL1       -0.0026
     27 C         138.1170  140.2412  164.9747 C.ar    1  UNL1       -0.0029
     28 C         138.0585  140.1495  163.4786 C.ar    1  UNL1       -0.0045
@<TRIPOS>BOND
     1    22    23    1
     2    23    24   ar
     3    24    25   ar
     4    25    26   ar
     5    26    21    1
     6    21    17    1
     7    17    18   am
     8    18    19    2
     9     1    18    1
    10     1     2    1
    11     2     3    1
    12     3     4    1
    13     4     5    1
    14     5     7    1
    15     7     8   ar
    16     8     9   ar
    17     9    10   ar
    18    10    13    1
    19    13    14    1
    20    13    15    1
    21    13    16    1
    22    10    11   ar
    23    11    12   ar
    24    26    27   ar
    25    27    28   ar
    26    28    23   ar
    27     5     1    1
    28    12     7   ar
    29    17    20    1
    30     3     6    1
@<TRIPOS>MOLECULE
*****
 28 30 0 0 0
SMALL
GASTEIGER

@<TRIPOS>ATOM
      1 C         143.7114  140.8893  164.1527 C.3     1  UNL1        0.0975
      2 C         144.7992  141.0810  163.1378 C.3     1  UNL1        0.0781
      3 N         145.4990  142.3714  163.4465 N.3     1  UNL1       -0.2968
      4 C         144.8437  142.9771  164.6522 C.3     1  UNL1        0.0735
      5 C         143.7389  142.0611  165.0886 C.3     1  UNL1        0.0480
      6 H         145.4188  143.0071  162.6528 H       1  UNL1        0.1233
      7 C         142.8226  142.2788  166.2561 C.ar    1  UNL1       -0.0207
      8 C         141.3762  142.6018  166.0241 C.ar    1  UNL1       -0.0043
      9 C         140.4599  142.8195  167.1916 C.ar    1  UNL1        0.0035
     10 C         140.9898  142.7142  168.5909 C.ar    1  UNL1        0.0714
     11 C         142.4361  142.3913  168.8228 C.ar    1  UNL1        0.0035
     12 C         143.3525  142.1736  167.6554 C.ar    1  UNL1       -0.0043
     13 C         140.0734  142.9319  169.7584 C.3     1  UNL1        0.4186
     14 F         139.1571  143.1495  170.9258 F       1  UNL1       -0.1659
     15 F         140.5449  144.3520  169.8636 F       1  UNL1       -0.1659
     16 F         139.6020  141.5117  169.6531 F       1  UNL1       -0.1659
     17 N         141.5065  139.7395  163.4003 N.am    1  UNL1       -0.3004
     18 C         142.7627  139.7293  164.2199 C.2     1  UNL1        0.2240
     19 O         143.0703  138.5592  165.1065 O.2     1  UNL1       -0.2750
     20 H         141.3046  140.5075  162.8184 H       1  UNL1        0.1497
     21 C         140.5578  138.5796  163.4674 C.3     1  UNL1        0.1163
     22 C         136.7575  138.0752  168.0830 C.3     1  UNL1        0.0310
     23 C         137.7076  138.2013  166.9291 C.ar    1  UNL1       -0.0219
     24 C         138.3681  139.5170  166.6417 C.ar    1  UNL1       -0.0045
     25 C         139.3181  139.6431  165.4878 C.ar    1  UNL1       -0.0029
     26 C         139.6077  138.4535  164.6213 C.ar    1  UNL1       -0.0026
     27 C         138.9472  137.1378  164.9087 C.ar    1  UNL1       -0.0029
     28 C         137.9972  137.0117  166.0626 C.ar    1  UNL1       -0.0045
@<TRIPOS>BOND
     1    22    23    1
     2    23    24   ar
     3    24    25   ar
     4    25    26   ar
     5    26    21    1
     6    21    17    1
     7    17    18   am
     8    18    19    2
     9     1    18    1
    10     1     2    1
    11     2     3    1
    12     3     4    1
    13     4     5    1
    14     5     7    1
    15     7     8   ar
    16     8     9   ar
    17     9    10   ar
    18    10    13    1
    19    13    14    1
    20    13    15    1
    21    13    16    1
    22    10    11   ar
    23    11    12   ar
    24    26    27   ar
    25    27    28   ar
    26    28    23   ar
    27     5     1    1
    28    12     7   ar
    29    17    20    1
    30     3     6    1
@<TRIPOS>MOLECULE
*****
 28 30 0 0 0
SMALL
GASTEIGER

@<TRIPOS>ATOM
      1 C         141.0613  141.9407  169.6801 C.3     1  UNL1        0.0975
      2 C         141.6452  142.1128  171.0511 C.3     1  UNL1        0.0781
      3 N         142.1086  140.7688  171.5296 N.3     1  UNL1       -0.2968
      4 C         141.8111  139.7661  170.4544 C.3     1  UNL1        0.0735
      5 C         141.1638  140.4904  169.3114 C.3     1  UNL1        0.0480
      6 H         141.6136  140.5163  172.3850 H       1  UNL1        0.1233
      7 C         140.7005  139.8727  168.0254 C.ar    1  UNL1       -0.0207
      8 C         139.2391  139.6227  167.7973 C.ar    1  UNL1       -0.0043
      9 C         138.7757  139.0050  166.5113 C.ar    1  UNL1        0.0035
     10 C         139.7736  138.6374  165.4534 C.ar    1  UNL1        0.0714
     11 C         141.2349  138.8874  165.6815 C.ar    1  UNL1        0.0035
     12 C         141.6983  139.5051  166.9675 C.ar    1  UNL1       -0.0043
     13 C         139.3103  138.0197  164.1674 C.3     1  UNL1        0.4186
     14 F         138.8468  137.4021  162.8814 F       1  UNL1       -0.1659
     15 F         140.4298  137.0242  164.2421 F       1  UNL1       -0.1659
     16 F         138.1907  139.0153  164.0927 F       1  UNL1       -0.1659
     17 N         140.3672  142.8400  167.3436 N.am    1  UNL1       -0.3004
     18 C         140.4773  143.0281  168.8277 C.2     1  UNL1        0.2240
     19 O         140.0036  144.3034  169.4593 O.2     1  UNL1       -0.2750
     20 H         140.6781  142.0029  166.9290 H       1  UNL1        0.1497
     21 C         139.7833  143.9273  166.4911 C.3     1  UNL1        0.1163
     22 C         138.2504  142.7840  160.8040 C.3     1  UNL1        0.0310
     23 C         138.6336  143.0698  162.2258 C.ar    1  UNL1       -0.0219
     24 C         139.1855  141.9740  163.0886 C.ar    1  UNL1       -0.0045
     25 C         139.5687  142.2598  164.5104 C.ar    1  UNL1       -0.0029
     26 C         139.4000  143.6415  165.0693 C.ar    1  UNL1       -0.0026
     27 C         138.8482  144.7374  164.2065 C.ar    1  UNL1       -0.0029
     28 C         138.4650  144.4515  162.7847 C.ar    1  UNL1       -0.0045
@<TRIPOS>BOND
     1    22    23    1
     2    23    24   ar
     3    24    25   ar
     4    25    26   ar
     5    26    21    1
     6    21    17    1
     7    17    18   am
     8    18    19    2
     9     1    18    1
    10     1     2    1
    11     2     3    1
    12     3     4    1
    13     4     5    1
    14     5     7    1
    15     7     8   ar
    16     8     9   ar
    17     9    10   ar
    18    10    13    1
    19    13    14    1
    20    13    15    1
    21    13    16    1
    22    10    11   ar
    23    11    12   ar
    24    26    27   ar
    25    27    28   ar
    26    28    23   ar
    27     5     1    1
    28    12     7   ar
    29    17    20    1
    30     3     6    1
@<TRIPOS>MOLECULE
*****
 28 30 0 0 0
SMALL
GASTEIGER

@<TRIPOS>ATOM
      1 C         142.7996  142.4179  162.6051 C.3     1  UNL1        0.0975
      2 C         143.7057  142.9217  161.5212 C.3     1  UNL1        0.0781
      3 N         144.6016  143.9680  162.1150 N.3     1  UNL1       -0.2968
      4 C         144.2491  144.1108  163.5660 C.3     1  UNL1        0.0735
      5 C         143.1354  143.1527  163.8689 C.3     1  UNL1        0.0480
      6 H         144.4607  144.8572  161.6354 H       1  UNL1        0.1233
      7 C         142.4738  142.9629  165.2016 C.ar    1  UNL1       -0.0207
      8 C         141.0062  143.2328  165.3556 C.ar    1  UNL1       -0.0043
      9 C         140.3446  143.0430  166.6883 C.ar    1  UNL1        0.0035
     10 C         141.1503  142.5833  167.8671 C.ar    1  UNL1        0.0714
     11 C         142.6177  142.3134  167.7131 C.ar    1  UNL1        0.0035
     12 C         143.2794  142.5032  166.3804 C.ar    1  UNL1       -0.0043
     13 C         140.4886  142.3934  169.1998 C.3     1  UNL1        0.4186
     14 F         139.8269  142.2035  170.5325 F       1  UNL1       -0.1659
     15 F         141.2564  143.5600  169.7472 F       1  UNL1       -0.1659
     16 F         139.7208  141.2268  168.6524 F       1  UNL1       -0.1659
     17 N         141.8745  140.0590  163.1798 N.am    1  UNL1       -0.3004
     18 C         141.7430  141.3641  162.4521 C.2     1  UNL1        0.2240
     19 O         140.5550  141.6154  161.5716 O.2     1  UNL1       -0.2750
     20 H         142.6543  139.8940  163.7577 H       1  UNL1        0.1497
     21 C         140.8181  139.0052  163.0268 C.3     1  UNL1        0.1163
     22 C         137.0034  137.9062  167.5257 C.3     1  UNL1        0.0310
     23 C         137.9571  138.1810  166.4010 C.ar    1  UNL1       -0.0219
     24 C         138.4015  139.5859  166.1208 C.ar    1  UNL1       -0.0045
     25 C         139.3552  139.8607  164.9961 C.ar    1  UNL1       -0.0029
     26 C         139.8644  138.7305  164.1515 C.ar    1  UNL1       -0.0026
     27 C         139.4199  137.3255  164.4317 C.ar    1  UNL1       -0.0029
     28 C         138.4663  137.0508  165.5565 C.ar    1  UNL1       -0.0045
@<TRIPOS>BOND
     1    22    23    1
     2    23    24   ar
     3    24    25   ar
     4    25    26   ar
     5    26    21    1
     6    21    17    1
     7    17    18   am
     8    18    19    2
     9     1    18    1
    10     1     2    1
    11     2     3    1
    12     3     4    1
    13     4     5    1
    14     5     7    1
    15     7     8   ar
    16     8     9   ar
    17     9    10   ar
    18    10    13    1
    19    13    14    1
    20    13    15    1
    21    13    16    1
    22    10    11   ar
    23    11    12   ar
    24    26    27   ar
    25    27    28   ar
    26    28    23   ar
    27     5     1    1
    28    12     7   ar
    29    17    20    1
    30     3     6    1
@<TRIPOS>MOLECULE
*****
 28 30 0 0 0
SMALL
GASTEIGER

@<TRIPOS>ATOM
      1 C         141.8454  140.2405  167.4474 C.3     1  UNL1        0.0975
      2 C         142.6033  139.7789  168.6567 C.3     1  UNL1        0.0781
      3 N         143.2547  140.9772  169.2809 N.3     1  UNL1       -0.2968
      4 C         142.8993  142.1795  168.4573 C.3     1  UNL1        0.0735
      5 C         142.0284  141.7242  167.3241 C.3     1  UNL1        0.0480
      6 H         144.2671  140.8535  169.2939 H       1  UNL1        0.1233
      7 C         141.4431  142.5990  166.2554 C.ar    1  UNL1       -0.0207
      8 C         140.0173  143.0541  166.3561 C.ar    1  UNL1       -0.0043
      9 C         139.4321  143.9288  165.2873 C.ar    1  UNL1        0.0035
     10 C         140.2725  144.3486  164.1179 C.ar    1  UNL1        0.0714
     11 C         141.6983  143.8935  164.0173 C.ar    1  UNL1        0.0035
     12 C         142.2835  143.0187  165.0860 C.ar    1  UNL1       -0.0043
     13 C         139.6873  145.2234  163.0492 C.3     1  UNL1        0.4186
     14 F         139.1020  146.0981  161.9804 F       1  UNL1       -0.1659
     15 F         141.0225  145.8785  162.8543 F       1  UNL1       -0.1659
     16 F         138.3520  144.5682  163.2441 F       1  UNL1       -0.1659
     17 N         139.5464  139.3934  166.5830 N.am    1  UNL1       -0.3004
     18 C         141.0451  139.3710  166.5235 C.2     1  UNL1        0.2240
     19 O         141.7434  138.4793  165.5401 O.2     1  UNL1       -0.2750
     20 H         139.0881  139.9787  167.2285 H       1  UNL1        0.1497
     21 C         138.7461  138.5240  165.6592 C.3     1  UNL1        0.1163
     22 C         137.8723  140.2026  159.9655 C.3     1  UNL1        0.0310
     23 C         138.0907  139.7830  161.3889 C.ar    1  UNL1       -0.0219
     24 C         138.4691  138.3660  161.7034 C.ar    1  UNL1       -0.0045
     25 C         138.6875  137.9463  163.1268 C.ar    1  UNL1       -0.0029
     26 C         138.5276  138.9436  164.2358 C.ar    1  UNL1       -0.0026
     27 C         138.1492  140.3606  163.9212 C.ar    1  UNL1       -0.0029
     28 C         137.9308  140.7803  162.4978 C.ar    1  UNL1       -0.0045
@<TRIPOS>BOND
     1    22    23    1
     2    23    24   ar
     3    24    25   ar
     4    25    26   ar
     5    26    21    1
     6    21    17    1
     7    17    18   am
     8    18    19    2
     9     1    18    1
    10     1     2    1
    11     2     3    1
    12     3     4    1
    13     4     5    1
    14     5     7    1
    15     7     8   ar
    16     8     9   ar
    17     9    10   ar
    18    10    13    1
    19    13    14    1
    20    13    15    1
    21    13    16    1
    22    10    11   ar
    23    11    12   ar
    24    26    27   ar
    25    27    28   ar
    26    28    23   ar
    27     5     1    1
    28    12     7   ar
    29    17    20    1
    30     3     6    1
@<TRIPOS>MOLECULE
*****
 28 30 0 0 0
SMALL
GASTEIGER

@<TRIPOS>ATOM
      1 C         140.4940  144.2365  162.7119 C.3     1  UNL1        0.0975
      2 C         140.2526  145.5792  162.0882 C.3     1  UNL1        0.0781
      3 N         138.7730  145.8249  162.0750 N.3     1  UNL1       -0.2968
      4 C         138.0998  144.6341  162.6906 C.3     1  UNL1        0.0735
      5 C         139.1635  143.6525  163.0843 C.3     1  UNL1        0.0480
      6 H         138.4508  145.9467  161.1149 H       1  UNL1        0.1233
      7 C         138.9365  142.3206  163.7358 C.ar    1  UNL1       -0.0207
      8 C         138.3583  141.1864  162.9425 C.ar    1  UNL1       -0.0043
      9 C         138.1313  139.8545  163.5940 C.ar    1  UNL1        0.0035
     10 C         138.4824  139.6568  165.0389 C.ar    1  UNL1        0.0714
     11 C         139.0605  140.7910  165.8322 C.ar    1  UNL1        0.0035
     12 C         139.2875  142.1228  165.1807 C.ar    1  UNL1       -0.0043
     13 C         138.2554  138.3249  165.6905 C.3     1  UNL1        0.4186
     14 F         138.0284  136.9930  166.3420 F       1  UNL1       -0.1659
     15 F         137.4494  138.9890  166.7672 F       1  UNL1       -0.1659
     16 F         139.0615  137.6608  164.6138 F       1  UNL1       -0.1659
     17 N         142.1282  142.2579  162.3061 N.am    1  UNL1       -0.3004
     18 C         141.8312  143.5913  162.9258 C.2     1  UNL1        0.2240
     19 O         142.8712  144.2793  163.7593 O.2     1  UNL1       -0.2750
     20 H         141.4455  141.8063  161.7591 H       1  UNL1        0.1497
     21 C         143.4653  141.6126  162.5200 C.3     1  UNL1        0.1163
     22 C         144.1797  137.5689  166.8947 C.3     1  UNL1        0.0310
     23 C         144.0011  138.5799  165.8010 C.ar    1  UNL1       -0.0219
     24 C         142.6300  139.0867  165.4647 C.ar    1  UNL1       -0.0045
     25 C         142.4514  140.0976  164.3711 C.ar    1  UNL1       -0.0029
     26 C         143.6439  140.6017  163.6136 C.ar    1  UNL1       -0.0026
     27 C         145.0150  140.0949  163.9499 C.ar    1  UNL1       -0.0029
     28 C         145.1936  139.0840  165.0436 C.ar    1  UNL1       -0.0045
@<TRIPOS>BOND
     1    22    23    1
     2    23    24   ar
     3    24    25   ar
     4    25    26   ar
     5    26    21    1
     6    21    17    1
     7    17    18   am
     8    18    19    2
     9     1    18    1
    10     1     2    1
    11     2     3    1
    12     3     4    1
    13     4     5    1
    14     5     7    1
    15     7     8   ar
    16     8     9   ar
    17     9    10   ar
    18    10    13    1
    19    13    14    1
    20    13    15    1
    21    13    16    1
    22    10    11   ar
    23    11    12   ar
    24    26    27   ar
    25    27    28   ar
    26    28    23   ar
    27     5     1    1
    28    12     7   ar
    29    17    20    1
    30     3     6    1
@<TRIPOS>MOLECULE
*****
 28 30 0 0 0
SMALL
GASTEIGER

@<TRIPOS>ATOM
      1 C         139.6576  140.5172  168.1984 C.3     1  UNL1        0.0975
      2 C         139.0160  140.3698  169.5462 C.3     1  UNL1        0.0781
      3 N         139.4386  141.5352  170.3907 N.3     1  UNL1       -0.2968
      4 C         140.3415  142.4028  169.5648 C.3     1  UNL1        0.0735
      5 C         140.4768  141.7736  168.2099 C.3     1  UNL1        0.0480
      6 H         139.9380  141.2020  171.2154 H       1  UNL1        0.1233
      7 C         141.2889  142.3072  167.0672 C.ar    1  UNL1       -0.0207
      8 C         142.7811  142.1542  167.0716 C.ar    1  UNL1       -0.0043
      9 C         143.5931  142.6878  165.9289 C.ar    1  UNL1        0.0035
     10 C         142.9130  143.3745  164.7817 C.ar    1  UNL1        0.0714
     11 C         141.4209  143.5275  164.7773 C.ar    1  UNL1        0.0035
     12 C         140.6089  142.9939  165.9200 C.ar    1  UNL1       -0.0043
     13 C         143.7250  143.9081  163.6390 C.3     1  UNL1        0.4186
     14 F         144.5371  144.4418  162.4963 F       1  UNL1       -0.1659
     15 F         143.4285  142.6679  162.8491 F       1  UNL1       -0.1659
     16 F         144.0216  145.1484  164.4289 F       1  UNL1       -0.1659
     17 N         140.7050  139.1897  166.2258 N.am    1  UNL1       -0.3004
     18 C         139.5065  139.5737  167.0420 C.2     1  UNL1        0.2240
     19 O         138.1570  139.0142  166.7020 O.2     1  UNL1       -0.2750
     20 H         141.5907  139.5570  166.4490 H       1  UNL1        0.1497
     21 C         140.5539  138.2463  165.0695 C.3     1  UNL1        0.1163
     22 C         137.6461  140.0033  160.1240 C.3     1  UNL1        0.0310
     23 C         138.3731  139.5640  161.3604 C.ar    1  UNL1       -0.0219
     24 C         138.1594  138.1830  161.9053 C.ar    1  UNL1       -0.0045
     25 C         138.8863  137.7437  163.1417 C.ar    1  UNL1       -0.0029
     26 C         139.8270  138.6855  163.8331 C.ar    1  UNL1       -0.0026
     27 C         140.0407  140.0666  163.2882 C.ar    1  UNL1       -0.0029
     28 C         139.3137  140.5058  162.0518 C.ar    1  UNL1       -0.0045
@<TRIPOS>BOND
     1    22    23    1
     2    23    24   ar
     3    24    25   ar
     4    25    26   ar
     5    26    21    1
     6    21    17    1
     7    17    18   am
     8    18    19    2
     9     1    18    1
    10     1     2    1
    11     2     3    1
    12     3     4    1
    13     4     5    1
    14     5     7    1
    15     7     8   ar
    16     8     9   ar
    17     9    10   ar
    18    10    13    1
    19    13    14    1
    20    13    15    1
    21    13    16    1
    22    10    11   ar
    23    11    12   ar
    24    26    27   ar
    25    27    28   ar
    26    28    23   ar
    27     5     1    1
    28    12     7   ar
    29    17    20    1
    30     3     6    1
