@<TRIPOS>MOLECULE
*****
 38 42 0 0 0
SMALL
GASTEIGER

@<TRIPOS>ATOM
      1 N         137.8962  142.9350  163.1693 N.3     1  UNL1       -0.2689
      2 C         137.9152  142.6309  161.7006 C.3     1  UNL1        0.0737
      3 C         137.9343  141.2068  161.2298 C.3     1  UNL1        0.0356
      4 C         137.9345  140.0870  162.2277 C.3     1  UNL1        0.0846
      5 C         137.9156  140.3911  163.6964 C.3     1  UNL1        0.1455
      6 C         137.8964  141.8152  164.1672 C.3     1  UNL1        0.1034
      7 N         137.9537  138.6628  161.7569 N.3     1  UNL1       -0.2915
      8 H         137.3569  138.6177  160.9310 H       1  UNL1        0.1236
      9 C         139.2539  138.0124  161.3876 C.3     1  UNL1        0.1152
     10 C         140.4667  138.2200  162.2456 C.ar    1  UNL1        0.0765
     11 C         140.6437  137.4179  163.5006 C.ar    1  UNL1        0.0193
     12 C         141.8564  137.6254  164.3587 C.ar    1  UNL1        0.0411
     13 C         142.8921  138.6352  163.9617 C.ar    1  UNL1        0.1708
     14 C         142.7151  139.4374  162.7066 C.ar    1  UNL1        0.1682
     15 N         141.5024  139.2298  161.8486 N.ar    1  UNL1       -0.2304
     16 N         143.7508  140.4472  162.3095 N.am    1  UNL1       -0.2639
     17 C         144.9636  140.6548  163.1676 C.2     1  UNL1        0.2718
     18 O         145.9993  141.6646  162.7706 O.2     1  UNL1       -0.2707
     19 C         145.1406  139.8526  164.4226 C.3     1  UNL1        0.2898
     20 O         144.1048  138.8428  164.8197 O.3     1  UNL1       -0.4628
     21 H         143.6346  140.9737  161.4858 H       1  UNL1        0.1565
     22 O         137.9158  139.2712  164.6943 O.3     1  UNL1       -0.3508
     23 C         138.4204  139.5077  166.0870 C.3     1  UNL1        0.1741
     24 C         137.8770  144.3592  163.6401 C.3     1  UNL1        0.0970
     25 C         138.9412  144.8548  164.5738 C.3     1  UNL1        0.1264
     26 C         141.0220  141.9843  167.3452 C.ar    1  UNL1        0.1593
     27 C         142.4575  141.6197  167.1076 C.ar    1  UNL1        0.1357
     28 N         143.1993  142.2119  165.9462 N.ar    1  UNL1       -0.2392
     29 C         142.5058  143.1687  165.0224 C.ar    1  UNL1        0.0975
     30 C         143.2476  143.7610  163.8610 C.ar    1  UNL1        0.0255
     31 C         142.5541  144.7178  162.9372 C.ar    1  UNL1        0.0623
     32 C         141.1185  145.0824  163.1748 C.ar    1  UNL1        0.2611
     33 O         140.4250  146.0392  162.2510 O.2     1  UNL1       -0.2670
     34 N         140.3767  144.4902  164.3362 N.ar    1  UNL1       -0.2926
     35 C         141.0703  143.5333  165.2600 C.ar    1  UNL1        0.0832
     36 C         140.3284  142.9411  166.4214 C.ar    1  UNL1        0.0573
     37 C         140.6893  140.0578  169.0563 C.3     1  UNL1        0.2525
     38 O         140.2801  141.3921  168.5066 O.3     1  UNL1       -0.4698
@<TRIPOS>BOND
     1    37    38    1
     2    38    26    1
     3    26    27   ar
     4    27    28   ar
     5    28    29   ar
     6    29    30   ar
     7    30    31   ar
     8    31    32   ar
     9    32    33    2
    10    32    34   ar
    11    34    25    1
    12    25    24    1
    13    24     1    1
    14     1     2    1
    15     2     3    1
    16     3     4    1
    17     4     7    1
    18     7     9    1
    19     9    10    1
    20    10    11   ar
    21    11    12   ar
    22    12    13   ar
    23    13    14   ar
    24    14    15   ar
    25    14    16    1
    26    16    17   am
    27    17    18    2
    28    17    19    1
    29    19    20    1
    30     4     5    1
    31     5    22    1
    32    22    23    1
    33     5     6    1
    34    34    35   ar
    35    35    36   ar
    36    36    26   ar
    37    35    29   ar
    38     6     1    1
    39    15    10   ar
    40    20    13    1
    41     7     8    1
    42    16    21    1
@<TRIPOS>MOLECULE
*****
 38 42 0 0 0
SMALL
GASTEIGER

@<TRIPOS>ATOM
      1 N         142.7346  144.1293  163.0412 N.3     1  UNL1       -0.2689
      2 C         142.5114  143.4365  161.7296 C.3     1  UNL1        0.0737
      3 C         141.1234  143.3097  161.1751 C.3     1  UNL1        0.0356
      4 C         139.9588  143.8757  161.9321 C.3     1  UNL1        0.0846
      5 C         140.1820  144.5685  163.2437 C.3     1  UNL1        0.1455
      6 C         141.5699  144.6953  163.7982 C.3     1  UNL1        0.1034
      7 N         138.5708  143.7488  161.3776 N.3     1  UNL1       -0.2915
      8 H         138.5018  144.4087  160.6029 H       1  UNL1        0.1236
      9 C         138.0864  142.4254  160.8638 C.3     1  UNL1        0.1152
     10 C         138.2970  141.1826  161.6768 C.ar    1  UNL1        0.0765
     11 C         138.8166  139.9372  161.0220 C.ar    1  UNL1        0.0193
     12 C         139.0272  138.6943  161.8350 C.ar    1  UNL1        0.0411
     13 C         138.7183  138.6969  163.3028 C.ar    1  UNL1        0.1708
     14 C         138.1987  139.9425  163.9577 C.ar    1  UNL1        0.1682
     15 N         137.9881  141.1853  163.1446 N.ar    1  UNL1       -0.2304
     16 N         137.8898  139.9451  165.4255 N.am    1  UNL1       -0.2639
     17 C         138.1004  138.7022  166.2385 C.2     1  UNL1        0.2718
     18 O         137.7914  138.7049  167.7063 O.2     1  UNL1       -0.2707
     19 C         138.6199  137.4567  165.5837 C.3     1  UNL1        0.2898
     20 O         138.9289  137.4541  164.1158 O.3     1  UNL1       -0.4628
     21 H         137.5488  140.7626  165.8553 H       1  UNL1        0.1565
     22 O         139.0173  145.1345  164.0007 O.3     1  UNL1       -0.3508
     23 C         138.2974  144.2904  165.0103 C.3     1  UNL1        0.1741
     24 C         144.1226  144.2562  163.5957 C.3     1  UNL1        0.0970
     25 C         144.5077  143.5011  164.8332 C.3     1  UNL1        0.1264
     26 C         141.2310  141.9432  167.4952 C.ar    1  UNL1        0.1593
     27 C         140.9745  140.4680  167.5840 C.ar    1  UNL1        0.1357
     28 N         141.8103  139.5120  166.7854 N.ar    1  UNL1       -0.2392
     29 C         142.9025  140.0313  165.8981 C.ar    1  UNL1        0.0975
     30 C         143.7383  139.0754  165.0996 C.ar    1  UNL1        0.0255
     31 C         144.8305  139.5946  164.2123 C.ar    1  UNL1        0.0623
     32 C         145.0870  141.0699  164.1235 C.ar    1  UNL1        0.2611
     33 O         146.1792  141.5892  163.2361 O.2     1  UNL1       -0.2670
     34 N         144.2513  142.0259  164.9220 N.ar    1  UNL1       -0.2926
     35 C         143.1590  141.5065  165.8093 C.ar    1  UNL1        0.0832
     36 C         142.3232  142.4625  166.6079 C.ar    1  UNL1        0.0573
     37 C         140.8098  143.2761  169.6851 C.3     1  UNL1        0.2525
     38 O         140.3953  142.8992  168.2937 O.3     1  UNL1       -0.4698
@<TRIPOS>BOND
     1    37    38    1
     2    38    26    1
     3    26    27   ar
     4    27    28   ar
     5    28    29   ar
     6    29    30   ar
     7    30    31   ar
     8    31    32   ar
     9    32    33    2
    10    32    34   ar
    11    34    25    1
    12    25    24    1
    13    24     1    1
    14     1     2    1
    15     2     3    1
    16     3     4    1
    17     4     7    1
    18     7     9    1
    19     9    10    1
    20    10    11   ar
    21    11    12   ar
    22    12    13   ar
    23    13    14   ar
    24    14    15   ar
    25    14    16    1
    26    16    17   am
    27    17    18    2
    28    17    19    1
    29    19    20    1
    30     4     5    1
    31     5    22    1
    32    22    23    1
    33     5     6    1
    34    34    35   ar
    35    35    36   ar
    36    36    26   ar
    37    35    29   ar
    38     6     1    1
    39    15    10   ar
    40    20    13    1
    41     7     8    1
    42    16    21    1
@<TRIPOS>MOLECULE
*****
 38 42 0 0 0
SMALL
GASTEIGER

@<TRIPOS>ATOM
      1 N         137.8737  142.9560  162.9454 N.3     1  UNL1       -0.2689
      2 C         137.6806  141.8090  163.8926 C.3     1  UNL1        0.0737
      3 C         137.6867  140.4007  163.3762 C.3     1  UNL1        0.0356
      4 C         137.8860  140.1394  161.9127 C.3     1  UNL1        0.0846
      5 C         138.0791  141.2864  160.9655 C.3     1  UNL1        0.1455
      6 C         138.0730  142.6947  161.4819 C.3     1  UNL1        0.1034
      7 N         137.8922  138.7311  161.3962 N.3     1  UNL1       -0.2915
      8 H         137.3328  138.7278  160.5433 H       1  UNL1        0.1236
      9 C         139.1918  138.0597  161.0643 C.3     1  UNL1        0.1152
     10 C         140.3793  138.2385  161.9630 C.ar    1  UNL1        0.0765
     11 C         140.5151  137.4033  163.2015 C.ar    1  UNL1        0.0193
     12 C         141.7027  137.5821  164.1003 C.ar    1  UNL1        0.0411
     13 C         142.7545  138.5962  163.7605 C.ar    1  UNL1        0.1708
     14 C         142.6187  139.4314  162.5219 C.ar    1  UNL1        0.1682
     15 N         141.4311  139.2525  161.6232 N.ar    1  UNL1       -0.2304
     16 N         143.6705  140.4454  162.1820 N.am    1  UNL1       -0.2639
     17 C         144.8581  140.6242  163.0808 C.2     1  UNL1        0.2718
     18 O         145.9099  141.6382  162.7410 O.2     1  UNL1       -0.2707
     19 C         144.9938  139.7890  164.3193 C.3     1  UNL1        0.2898
     20 O         143.9420  138.7750  164.6592 O.3     1  UNL1       -0.4628
     21 H         143.5814  140.9936  161.3691 H       1  UNL1        0.1565
     22 O         138.2784  141.0251  159.5019 O.3     1  UNL1       -0.3508
     23 C         138.3145  142.1702  158.5337 C.3     1  UNL1        0.1741
     24 C         137.8676  144.3643  163.4619 C.3     1  UNL1        0.0970
     25 C         138.8820  144.7943  164.4797 C.3     1  UNL1        0.1264
     26 C         140.9889  141.8975  167.2036 C.ar    1  UNL1        0.1593
     27 C         142.4414  141.5894  166.9914 C.ar    1  UNL1        0.1357
     28 N         143.1917  142.2468  165.8712 N.ar    1  UNL1       -0.2392
     29 C         142.4895  143.2124  164.9632 C.ar    1  UNL1        0.0975
     30 C         143.2397  143.8699  163.8430 C.ar    1  UNL1        0.0255
     31 C         142.5375  144.8354  162.9351 C.ar    1  UNL1        0.0623
     32 C         141.0848  145.1436  163.1473 C.ar    1  UNL1        0.2611
     33 O         140.3826  146.1092  162.2393 O.2     1  UNL1       -0.2670
     34 N         140.3345  144.4862  164.2675 N.ar    1  UNL1       -0.2926
     35 C         141.0369  143.5205  165.1755 C.ar    1  UNL1        0.0832
     36 C         140.2866  142.8631  166.2957 C.ar    1  UNL1        0.0573
     37 C         139.4332  140.0020  168.0621 C.3     1  UNL1        0.2525
     38 O         140.2386  141.2401  168.3238 O.3     1  UNL1       -0.4698
@<TRIPOS>BOND
     1    37    38    1
     2    38    26    1
     3    26    27   ar
     4    27    28   ar
     5    28    29   ar
     6    29    30   ar
     7    30    31   ar
     8    31    32   ar
     9    32    33    2
    10    32    34   ar
    11    34    25    1
    12    25    24    1
    13    24     1    1
    14     1     2    1
    15     2     3    1
    16     3     4    1
    17     4     7    1
    18     7     9    1
    19     9    10    1
    20    10    11   ar
    21    11    12   ar
    22    12    13   ar
    23    13    14   ar
    24    14    15   ar
    25    14    16    1
    26    16    17   am
    27    17    18    2
    28    17    19    1
    29    19    20    1
    30     4     5    1
    31     5    22    1
    32    22    23    1
    33     5     6    1
    34    34    35   ar
    35    35    36   ar
    36    36    26   ar
    37    35    29   ar
    38     6     1    1
    39    15    10   ar
    40    20    13    1
    41     7     8    1
    42    16    21    1
@<TRIPOS>MOLECULE
*****
 38 42 0 0 0
SMALL
GASTEIGER

@<TRIPOS>ATOM
      1 N         141.6112  138.5814  164.4691 N.3     1  UNL1       -0.2689
      2 C         142.7704  138.8565  165.3805 C.3     1  UNL1        0.0737
      3 C         144.0164  139.4916  164.8385 C.3     1  UNL1        0.0356
      4 C         144.1034  139.8516  163.3850 C.3     1  UNL1        0.0846
      5 C         142.9442  139.5765  162.4735 C.3     1  UNL1        0.1455
      6 C         141.6982  138.9414  163.0156 C.3     1  UNL1        0.1034
      7 N         145.3495  140.4868  162.8428 N.3     1  UNL1       -0.2915
      8 H         145.3617  140.3021  161.8398 H       1  UNL1        0.1236
      9 C         145.5764  141.9595  163.0147 C.3     1  UNL1        0.1152
     10 C         144.4114  142.9043  163.0026 C.ar    1  UNL1        0.0765
     11 C         143.9645  143.5602  164.2754 C.ar    1  UNL1        0.0193
     12 C         142.7995  144.5050  164.2633 C.ar    1  UNL1        0.0411
     13 C         142.0814  144.7939  162.9784 C.ar    1  UNL1        0.1708
     14 C         142.5284  144.1380  161.7056 C.ar    1  UNL1        0.1682
     15 N         143.6934  143.1932  161.7177 N.ar    1  UNL1       -0.2304
     16 N         141.8104  144.4269  160.4207 N.am    1  UNL1       -0.2639
     17 C         140.6454  145.3717  160.4086 C.2     1  UNL1        0.2718
     18 O         139.9274  145.6607  159.1237 O.2     1  UNL1       -0.2707
     19 C         140.1985  146.0276  161.6814 C.3     1  UNL1        0.2898
     20 O         140.9165  145.7387  162.9663 O.3     1  UNL1       -0.4628
     21 H         142.1038  143.9964  159.5853 H       1  UNL1        0.1565
     22 O         143.0312  139.9366  161.0199 O.3     1  UNL1       -0.3508
     23 C         143.4593  138.9071  160.0165 C.3     1  UNL1        0.1741
     24 C         140.3651  137.9462  165.0112 C.3     1  UNL1        0.0970
     25 C         139.3492  138.7826  165.7313 C.3     1  UNL1        0.1264
     26 C         137.7606  141.2862  162.3463 C.ar    1  UNL1        0.1593
     27 C         137.9083  142.7784  162.3836 C.ar    1  UNL1        0.1357
     28 N         138.5855  143.4361  163.5493 N.ar    1  UNL1       -0.2392
     29 C         139.1150  142.6016  164.6776 C.ar    1  UNL1        0.0975
     30 C         139.7922  143.2594  165.8433 C.ar    1  UNL1        0.0255
     31 C         140.3217  142.4249  166.9716 C.ar    1  UNL1        0.0623
     32 C         140.1741  140.9326  166.9343 C.ar    1  UNL1        0.2611
     33 O         140.7036  140.0981  168.0627 O.2     1  UNL1       -0.2670
     34 N         139.4969  140.2748  165.7686 N.ar    1  UNL1       -0.2926
     35 C         138.9674  141.1094  164.6403 C.ar    1  UNL1        0.0832
     36 C         138.2902  140.4517  163.4746 C.ar    1  UNL1        0.0573
     37 C         137.8916  139.8499  160.1853 C.3     1  UNL1        0.2525
     38 O         137.0835  140.6285  161.1806 O.3     1  UNL1       -0.4698
@<TRIPOS>BOND
     1    37    38    1
     2    38    26    1
     3    26    27   ar
     4    27    28   ar
     5    28    29   ar
     6    29    30   ar
     7    30    31   ar
     8    31    32   ar
     9    32    33    2
    10    32    34   ar
    11    34    25    1
    12    25    24    1
    13    24     1    1
    14     1     2    1
    15     2     3    1
    16     3     4    1
    17     4     7    1
    18     7     9    1
    19     9    10    1
    20    10    11   ar
    21    11    12   ar
    22    12    13   ar
    23    13    14   ar
    24    14    15   ar
    25    14    16    1
    26    16    17   am
    27    17    18    2
    28    17    19    1
    29    19    20    1
    30     4     5    1
    31     5    22    1
    32    22    23    1
    33     5     6    1
    34    34    35   ar
    35    35    36   ar
    36    36    26   ar
    37    35    29   ar
    38     6     1    1
    39    15    10   ar
    40    20    13    1
    41     7     8    1
    42    16    21    1
@<TRIPOS>MOLECULE
*****
 38 42 0 0 0
SMALL
GASTEIGER

@<TRIPOS>ATOM
      1 N         144.4100  139.7758  163.8298 N.3     1  UNL1       -0.2689
      2 C         143.5204  139.3055  164.9423 C.3     1  UNL1        0.0737
      3 C         142.3671  138.3935  164.6458 C.3     1  UNL1        0.0356
      4 C         142.1033  137.9517  163.2368 C.3     1  UNL1        0.0846
      5 C         142.9928  138.4220  162.1243 C.3     1  UNL1        0.1455
      6 C         144.1462  139.3341  162.4209 C.3     1  UNL1        0.1034
      7 N         140.9499  137.0396  162.9402 N.3     1  UNL1       -0.2915
      8 H         140.7904  136.4838  163.7805 H       1  UNL1        0.1236
      9 C         139.6225  137.6140  162.5426 C.3     1  UNL1        0.1152
     10 C         139.2065  138.9627  163.0504 C.ar    1  UNL1        0.0765
     11 C         138.5551  139.0893  164.3956 C.ar    1  UNL1        0.0193
     12 C         138.1391  140.4381  164.9035 C.ar    1  UNL1        0.0411
     13 C         138.3744  141.6601  164.0661 C.ar    1  UNL1        0.1708
     14 C         139.0258  141.5334  162.7209 C.ar    1  UNL1        0.1682
     15 N         139.4418  140.1848  162.2130 N.ar    1  UNL1       -0.2304
     16 N         139.2611  142.7555  161.8835 N.am    1  UNL1       -0.2639
     17 C         138.8450  144.1042  162.3914 C.2     1  UNL1        0.2718
     18 O         139.0803  145.3263  161.5540 O.2     1  UNL1       -0.2707
     19 C         138.1937  144.2308  163.7366 C.3     1  UNL1        0.2898
     20 O         137.9583  143.0088  164.5740 O.3     1  UNL1       -0.4628
     21 H         139.6886  142.6724  161.0005 H       1  UNL1        0.1565
     22 O         142.7290  137.9802  160.7153 O.3     1  UNL1       -0.3508
     23 C         141.9912  138.8833  159.7719 C.3     1  UNL1        0.1741
     24 C         145.5633  140.6879  164.1264 C.3     1  UNL1        0.0970
     25 C         145.7494  141.9451  163.3297 C.3     1  UNL1        0.1264
     26 C         143.6943  142.4310  159.3560 C.ar    1  UNL1        0.1593
     27 C         142.5604  143.4023  159.2118 C.ar    1  UNL1        0.1357
     28 N         142.1116  144.2117  160.3923 N.ar    1  UNL1       -0.2392
     29 C         142.7966  144.0497  161.7168 C.ar    1  UNL1        0.0975
     30 C         142.3477  144.8591  162.8973 C.ar    1  UNL1        0.0255
     31 C         143.0327  144.6971  164.2218 C.ar    1  UNL1        0.0623
     32 C         144.1666  143.7258  164.3660 C.ar    1  UNL1        0.2611
     33 O         144.8516  143.5638  165.6906 O.2     1  UNL1       -0.2670
     34 N         144.6155  142.9164  163.1856 N.ar    1  UNL1       -0.2926
     35 C         143.9304  143.0784  161.8610 C.ar    1  UNL1        0.0832
     36 C         144.3793  142.2691  160.6805 C.ar    1  UNL1        0.0573
     37 C         145.0595  142.2286  157.1548 C.3     1  UNL1        0.2525
     38 O         144.1432  141.6217  158.1755 O.3     1  UNL1       -0.4698
@<TRIPOS>BOND
     1    37    38    1
     2    38    26    1
     3    26    27   ar
     4    27    28   ar
     5    28    29   ar
     6    29    30   ar
     7    30    31   ar
     8    31    32   ar
     9    32    33    2
    10    32    34   ar
    11    34    25    1
    12    25    24    1
    13    24     1    1
    14     1     2    1
    15     2     3    1
    16     3     4    1
    17     4     7    1
    18     7     9    1
    19     9    10    1
    20    10    11   ar
    21    11    12   ar
    22    12    13   ar
    23    13    14   ar
    24    14    15   ar
    25    14    16    1
    26    16    17   am
    27    17    18    2
    28    17    19    1
    29    19    20    1
    30     4     5    1
    31     5    22    1
    32    22    23    1
    33     5     6    1
    34    34    35   ar
    35    35    36   ar
    36    36    26   ar
    37    35    29   ar
    38     6     1    1
    39    15    10   ar
    40    20    13    1
    41     7     8    1
    42    16    21    1
@<TRIPOS>MOLECULE
*****
 38 42 0 0 0
SMALL
GASTEIGER

@<TRIPOS>ATOM
      1 N         143.2467  140.3914  160.6164 N.3     1  UNL1       -0.2689
      2 C         144.0646  139.2469  161.1370 C.3     1  UNL1        0.0737
      3 C         143.3968  138.1173  161.8636 C.3     1  UNL1        0.0356
      4 C         141.9112  138.1323  162.0697 C.3     1  UNL1        0.0846
      5 C         141.0933  139.2769  161.5491 C.3     1  UNL1        0.1455
      6 C         141.7610  140.4064  160.8224 C.3     1  UNL1        0.1034
      7 N         141.2433  137.0027  162.7964 N.3     1  UNL1       -0.2915
      8 H         141.6535  136.1396  162.4396 H       1  UNL1        0.1236
      9 C         141.3126  136.9286  164.2930 C.3     1  UNL1        0.1152
     10 C         141.0016  138.1413  165.1192 C.ar    1  UNL1        0.0765
     11 C         139.5894  138.6362  165.2226 C.ar    1  UNL1        0.0193
     12 C         139.2782  139.8489  166.0488 C.ar    1  UNL1        0.0411
     13 C         140.3794  140.5667  166.7715 C.ar    1  UNL1        0.1708
     14 C         141.7916  140.0717  166.6681 C.ar    1  UNL1        0.1682
     15 N         142.1027  138.8590  165.8419 N.ar    1  UNL1       -0.2304
     16 N         142.8927  140.7895  167.3908 N.am    1  UNL1       -0.2639
     17 C         142.5816  142.0022  168.2170 C.2     1  UNL1        0.2718
     18 O         143.6827  142.7200  168.9397 O.2     1  UNL1       -0.2707
     19 C         141.1694  142.4972  168.3204 C.3     1  UNL1        0.2898
     20 O         140.0683  141.7794  167.5977 O.3     1  UNL1       -0.4628
     21 H         143.8196  140.4646  167.3229 H       1  UNL1        0.1565
     22 O         139.6075  139.2918  161.7552 O.3     1  UNL1       -0.3508
     23 C         138.7191  138.4706  160.8685 C.3     1  UNL1        0.1741
     24 C         143.9145  141.5211  159.8896 C.3     1  UNL1        0.0970
     25 C         144.4323  142.7029  160.6545 C.3     1  UNL1        0.1264
     26 C         140.6390  145.0074  161.3961 C.ar    1  UNL1        0.1593
     27 C         140.1737  145.2542  162.8006 C.ar    1  UNL1        0.1357
     28 N         140.9729  144.7327  163.9579 N.ar    1  UNL1       -0.2392
     29 C         142.2373  143.9646  163.7107 C.ar    1  UNL1        0.0975
     30 C         143.0365  143.4431  164.8681 C.ar    1  UNL1        0.0255
     31 C         144.3009  142.6750  164.6209 C.ar    1  UNL1        0.0623
     32 C         144.7662  142.4282  163.2164 C.ar    1  UNL1        0.2611
     33 O         146.0307  141.6601  162.9692 O.2     1  UNL1       -0.2670
     34 N         143.9671  142.9497  162.0590 N.ar    1  UNL1       -0.2926
     35 C         142.7026  143.7179  162.3063 C.ar    1  UNL1        0.0832
     36 C         141.9034  144.2393  161.1489 C.ar    1  UNL1        0.0573
     37 C         140.4026  145.4662  158.8498 C.3     1  UNL1        0.2525
     38 O         139.8398  145.5289  160.2387 O.3     1  UNL1       -0.4698
@<TRIPOS>BOND
     1    37    38    1
     2    38    26    1
     3    26    27   ar
     4    27    28   ar
     5    28    29   ar
     6    29    30   ar
     7    30    31   ar
     8    31    32   ar
     9    32    33    2
    10    32    34   ar
    11    34    25    1
    12    25    24    1
    13    24     1    1
    14     1     2    1
    15     2     3    1
    16     3     4    1
    17     4     7    1
    18     7     9    1
    19     9    10    1
    20    10    11   ar
    21    11    12   ar
    22    12    13   ar
    23    13    14   ar
    24    14    15   ar
    25    14    16    1
    26    16    17   am
    27    17    18    2
    28    17    19    1
    29    19    20    1
    30     4     5    1
    31     5    22    1
    32    22    23    1
    33     5     6    1
    34    34    35   ar
    35    35    36   ar
    36    36    26   ar
    37    35    29   ar
    38     6     1    1
    39    15    10   ar
    40    20    13    1
    41     7     8    1
    42    16    21    1
@<TRIPOS>MOLECULE
*****
 38 42 0 0 0
SMALL
GASTEIGER

@<TRIPOS>ATOM
      1 N         140.7177  140.2303  160.5558 N.3     1  UNL1       -0.2689
      2 C         141.3271  138.9578  161.0653 C.3     1  UNL1        0.0737
      3 C         142.7254  138.9606  161.6080 C.3     1  UNL1        0.0356
      4 C         143.5144  140.2359  161.6412 C.3     1  UNL1        0.0846
      5 C         142.9051  141.5083  161.1317 C.3     1  UNL1        0.1455
      6 C         141.5068  141.5055  160.5890 C.3     1  UNL1        0.1034
      7 N         144.9128  140.2387  162.1840 N.3     1  UNL1       -0.2915
      8 H         145.4795  140.7848  161.5350 H       1  UNL1        0.1236
      9 C         145.1836  140.7800  163.5565 C.3     1  UNL1        0.1152
     10 C         144.2034  140.5366  164.6655 C.ar    1  UNL1        0.0765
     11 C         143.9585  139.1407  165.1569 C.ar    1  UNL1        0.0193
     12 C         142.9783  138.8971  166.2660 C.ar    1  UNL1        0.0411
     13 C         142.2431  140.0495  166.8836 C.ar    1  UNL1        0.1708
     14 C         142.4881  141.4455  166.3922 C.ar    1  UNL1        0.1682
     15 N         143.4682  141.6889  165.2832 N.ar    1  UNL1       -0.2304
     16 N         141.7529  142.5979  167.0099 N.am    1  UNL1       -0.2639
     17 C         140.7727  142.3543  168.1190 C.2     1  UNL1        0.2718
     18 O         140.0376  143.5067  168.7366 O.2     1  UNL1       -0.2707
     19 C         140.5278  140.9584  168.6103 C.3     1  UNL1        0.2898
     20 O         141.2630  139.8060  167.9927 O.3     1  UNL1       -0.4628
     21 H         141.9137  143.5140  166.6873 H       1  UNL1        0.1565
     22 O         143.6942  142.7836  161.1650 O.3     1  UNL1       -0.3508
     23 C         143.3967  143.8227  162.2050 C.3     1  UNL1        0.1741
     24 C         139.3193  140.2274  160.0131 C.3     1  UNL1        0.0970
     25 C         138.1503  140.2655  160.9522 C.3     1  UNL1        0.1264
     26 C         138.6019  144.2833  162.9279 C.ar    1  UNL1        0.1593
     27 C         138.8312  144.3698  164.4077 C.ar    1  UNL1        0.1357
     28 N         138.9099  143.1171  165.2290 N.ar    1  UNL1       -0.2392
     29 C         138.7594  141.7779  164.5704 C.ar    1  UNL1        0.0975
     30 C         138.8381  140.5252  165.3917 C.ar    1  UNL1        0.0255
     31 C         138.6875  139.1859  164.7332 C.ar    1  UNL1        0.0623
     32 C         138.4583  139.0993  163.2533 C.ar    1  UNL1        0.2611
     33 O         138.3077  137.7601  162.5948 O.2     1  UNL1       -0.2670
     34 N         138.3795  140.3521  162.4320 N.ar    1  UNL1       -0.2926
     35 C         138.5301  141.6914  163.0906 C.ar    1  UNL1        0.0832
     36 C         138.4514  142.9441  162.2693 C.ar    1  UNL1        0.0573
     37 C         139.7777  146.2707  161.7371 C.3     1  UNL1        0.2525
     38 O         138.5232  145.5360  162.1066 O.3     1  UNL1       -0.4698
@<TRIPOS>BOND
     1    37    38    1
     2    38    26    1
     3    26    27   ar
     4    27    28   ar
     5    28    29   ar
     6    29    30   ar
     7    30    31   ar
     8    31    32   ar
     9    32    33    2
    10    32    34   ar
    11    34    25    1
    12    25    24    1
    13    24     1    1
    14     1     2    1
    15     2     3    1
    16     3     4    1
    17     4     7    1
    18     7     9    1
    19     9    10    1
    20    10    11   ar
    21    11    12   ar
    22    12    13   ar
    23    13    14   ar
    24    14    15   ar
    25    14    16    1
    26    16    17   am
    27    17    18    2
    28    17    19    1
    29    19    20    1
    30     4     5    1
    31     5    22    1
    32    22    23    1
    33     5     6    1
    34    34    35   ar
    35    35    36   ar
    36    36    26   ar
    37    35    29   ar
    38     6     1    1
    39    15    10   ar
    40    20    13    1
    41     7     8    1
    42    16    21    1
@<TRIPOS>MOLECULE
*****
 38 42 0 0 0
SMALL
GASTEIGER

@<TRIPOS>ATOM
      1 N         141.7856  138.1950  164.2436 N.3     1  UNL1       -0.2689
      2 C         142.8392  138.5625  165.2460 C.3     1  UNL1        0.0737
      3 C         144.0633  139.3102  164.8075 C.3     1  UNL1        0.0356
      4 C         144.2338  139.6905  163.3666 C.3     1  UNL1        0.0846
      5 C         143.1802  139.3230  162.3642 C.3     1  UNL1        0.1455
      6 C         141.9561  138.5753  162.8027 C.3     1  UNL1        0.1034
      7 N         145.4580  140.4383  162.9281 N.3     1  UNL1       -0.2915
      8 H         145.5285  140.3208  161.9173 H       1  UNL1        0.1236
      9 C         145.5774  141.9081  163.2026 C.3     1  UNL1        0.1152
     10 C         144.3662  142.7885  163.1142 C.ar    1  UNL1        0.0765
     11 C         143.7123  143.2923  164.3665 C.ar    1  UNL1        0.0193
     12 C         142.5010  144.1727  164.2782 C.ar    1  UNL1        0.0411
     13 C         141.9436  144.5492  162.9374 C.ar    1  UNL1        0.1708
     14 C         142.5976  144.0453  161.6850 C.ar    1  UNL1        0.1682
     15 N         143.8089  143.1650  161.7734 N.ar    1  UNL1       -0.2304
     16 N         142.0403  144.4218  160.3442 N.am    1  UNL1       -0.2639
     17 C         140.8290  145.3022  160.2559 C.2     1  UNL1        0.2718
     18 O         140.2717  145.6786  158.9151 O.2     1  UNL1       -0.2707
     19 C         140.1751  145.8060  161.5083 C.3     1  UNL1        0.2898
     20 O         140.7324  145.4295  162.8490 O.3     1  UNL1       -0.4628
     21 H         142.4695  144.0911  159.5223 H       1  UNL1        0.1565
     22 O         143.3508  139.7034  160.9232 O.3     1  UNL1       -0.3508
     23 C         142.7709  138.8365  159.8451 C.3     1  UNL1        0.1741
     24 C         140.5614  137.4472  164.6822 C.3     1  UNL1        0.0970
     25 C         139.3816  138.1948  165.2291 C.3     1  UNL1        0.1264
     26 C         140.8771  141.0461  168.3729 C.ar    1  UNL1        0.1593
     27 C         140.7622  142.5262  168.1587 C.ar    1  UNL1        0.1357
     28 N         140.1489  143.0560  166.8965 N.ar    1  UNL1       -0.2392
     29 C         139.6504  142.1056  165.8486 C.ar    1  UNL1        0.0975
     30 C         139.0370  142.6353  164.5864 C.ar    1  UNL1        0.0255
     31 C         138.5385  141.6850  163.5384 C.ar    1  UNL1        0.0623
     32 C         138.6533  140.2047  163.7527 C.ar    1  UNL1        0.2611
     33 O         138.1548  139.2543  162.7047 O.2     1  UNL1       -0.2670
     34 N         139.2667  139.6750  165.0148 N.ar    1  UNL1       -0.2926
     35 C         139.7652  140.6254  166.0628 C.ar    1  UNL1        0.0832
     36 C         140.3786  140.0957  167.3250 C.ar    1  UNL1        0.0573
     37 C         140.9861  140.9843  170.9680 C.3     1  UNL1        0.2525
     38 O         141.4905  140.5163  169.6351 O.3     1  UNL1       -0.4698
@<TRIPOS>BOND
     1    37    38    1
     2    38    26    1
     3    26    27   ar
     4    27    28   ar
     5    28    29   ar
     6    29    30   ar
     7    30    31   ar
     8    31    32   ar
     9    32    33    2
    10    32    34   ar
    11    34    25    1
    12    25    24    1
    13    24     1    1
    14     1     2    1
    15     2     3    1
    16     3     4    1
    17     4     7    1
    18     7     9    1
    19     9    10    1
    20    10    11   ar
    21    11    12   ar
    22    12    13   ar
    23    13    14   ar
    24    14    15   ar
    25    14    16    1
    26    16    17   am
    27    17    18    2
    28    17    19    1
    29    19    20    1
    30     4     5    1
    31     5    22    1
    32    22    23    1
    33     5     6    1
    34    34    35   ar
    35    35    36   ar
    36    36    26   ar
    37    35    29   ar
    38     6     1    1
    39    15    10   ar
    40    20    13    1
    41     7     8    1
    42    16    21    1
@<TRIPOS>MOLECULE
*****
 38 42 0 0 0
SMALL
GASTEIGER

@<TRIPOS>ATOM
      1 N         138.3396  140.9336  160.6022 N.3     1  UNL1       -0.2689
      2 C         137.6710  140.7527  161.9327 C.3     1  UNL1        0.0737
      3 C         137.6273  141.8891  162.9108 C.3     1  UNL1        0.0356
      4 C         138.2524  143.2063  162.5584 C.3     1  UNL1        0.0846
      5 C         138.9210  143.3871  161.2279 C.3     1  UNL1        0.1455
      6 C         138.9646  142.2508  160.2498 C.3     1  UNL1        0.1034
      7 N         138.2088  144.3428  163.5365 N.3     1  UNL1       -0.2915
      8 H         137.3101  144.2846  164.0156 H       1  UNL1        0.1236
      9 C         139.2600  144.4574  164.6004 C.3     1  UNL1        0.1152
     10 C         140.6903  144.1401  164.2787 C.ar    1  UNL1        0.0765
     11 C         141.5746  145.1916  163.6769 C.ar    1  UNL1        0.0193
     12 C         143.0050  144.8744  163.3552 C.ar    1  UNL1        0.0411
     13 C         143.5510  143.5056  163.6353 C.ar    1  UNL1        0.1708
     14 C         142.6665  142.4541  164.2372 C.ar    1  UNL1        0.1682
     15 N         141.2362  142.7714  164.5588 N.ar    1  UNL1       -0.2304
     16 N         143.2125  141.0854  164.5173 N.am    1  UNL1       -0.2639
     17 C         144.6429  140.7681  164.1956 C.2     1  UNL1        0.2718
     18 O         145.1888  139.3994  164.4758 O.2     1  UNL1       -0.2707
     19 C         145.5272  141.8196  163.5938 C.3     1  UNL1        0.2898
     20 O         144.9813  143.1884  163.3137 O.3     1  UNL1       -0.4628
     21 H         142.6320  140.3952  164.9123 H       1  UNL1        0.1565
     22 O         139.5460  144.7045  160.8755 O.3     1  UNL1       -0.3508
     23 C         140.3324  144.8457  159.6060 C.3     1  UNL1        0.1741
     24 C         138.3832  139.7971  159.6241 C.3     1  UNL1        0.0970
     25 C         139.0119  138.4931  160.0170 C.3     1  UNL1        0.1264
     26 C         139.7346  137.7720  164.3997 C.ar    1  UNL1        0.1593
     27 C         141.1358  137.7459  164.9344 C.ar    1  UNL1        0.1357
     28 N         142.2961  137.9602  164.0082 N.ar    1  UNL1       -0.2392
     29 C         142.0552  138.2006  162.5473 C.ar    1  UNL1        0.0975
     30 C         143.2155  138.4149  161.6212 C.ar    1  UNL1        0.0255
     31 C         142.9746  138.6552  160.1603 C.ar    1  UNL1        0.0623
     32 C         141.5734  138.6813  159.6256 C.ar    1  UNL1        0.2611
     33 O         141.3325  138.9217  158.1647 O.2     1  UNL1       -0.2670
     34 N         140.4131  138.4670  160.5517 N.ar    1  UNL1       -0.2926
     35 C         140.6540  138.2266  162.0127 C.ar    1  UNL1        0.0832
     36 C         139.4937  138.0124  162.9388 C.ar    1  UNL1        0.0573
     37 C         138.1794  138.6327  166.2946 C.3     1  UNL1        0.2525
     38 O         138.5743  137.5577  165.3259 O.3     1  UNL1       -0.4698
@<TRIPOS>BOND
     1    37    38    1
     2    38    26    1
     3    26    27   ar
     4    27    28   ar
     5    28    29   ar
     6    29    30   ar
     7    30    31   ar
     8    31    32   ar
     9    32    33    2
    10    32    34   ar
    11    34    25    1
    12    25    24    1
    13    24     1    1
    14     1     2    1
    15     2     3    1
    16     3     4    1
    17     4     7    1
    18     7     9    1
    19     9    10    1
    20    10    11   ar
    21    11    12   ar
    22    12    13   ar
    23    13    14   ar
    24    14    15   ar
    25    14    16    1
    26    16    17   am
    27    17    18    2
    28    17    19    1
    29    19    20    1
    30     4     5    1
    31     5    22    1
    32    22    23    1
    33     5     6    1
    34    34    35   ar
    35    35    36   ar
    36    36    26   ar
    37    35    29   ar
    38     6     1    1
    39    15    10   ar
    40    20    13    1
    41     7     8    1
    42    16    21    1
