@<TRIPOS>MOLECULE
*****
 35 38 0 0 0
SMALL
GASTEIGER

@<TRIPOS>ATOM
      1 C         138.7580  140.6317  161.3529 C.ar    1  UNL1        0.0861
      2 C         137.8806  139.4595  161.0271 C.ar    1  UNL1        0.1046
      3 N         137.7996  138.2977  161.9724 N.ar    1  UNL1       -0.2421
      4 C         138.5960  138.3081  163.2435 C.ar    1  UNL1        0.1001
      5 C         139.4734  139.4803  163.5693 C.ar    1  UNL1        0.0326
      6 C         139.5544  140.6421  162.6240 C.ar    1  UNL1        0.0552
      7 N         140.4318  141.8143  162.9497 N.pl3   1  UNL1       -0.3072
      8 C         141.8509  141.8466  162.4648 C.3     1  UNL1        0.0921
      9 C         142.7283  143.0188  162.7905 C.3     1  UNL1        0.0369
     10 C         142.1866  144.1588  163.6012 C.3     1  UNL1        0.0542
     11 N         143.0640  145.3309  163.9270 N.3     1  UNL1       -0.3221
     12 C         140.7675  144.1265  164.0862 C.3     1  UNL1        0.0369
     13 C         139.8901  142.9542  163.7604 C.3     1  UNL1        0.0921
     14 H         143.9886  145.1866  163.5212 H       1  UNL1        0.1188
     15 H         143.1474  145.4222  164.9394 H       1  UNL1        0.1188
     16 C         140.2697  139.4907  164.8404 C.ar    1  UNL1        0.0021
     17 C         141.6443  138.8910  164.8692 C.ar    1  UNL1       -0.0042
     18 C         142.4407  138.9014  166.1403 C.ar    1  UNL1       -0.0222
     19 C         143.8153  138.3016  166.1690 C.3     1  UNL1        0.0310
     20 C         141.8625  139.5115  167.3826 C.ar    1  UNL1       -0.0085
     21 C         140.4879  140.1112  167.3538 C.ar    1  UNL1       -0.0222
     22 C         139.9096  140.7213  168.5962 C.3     1  UNL1        0.0310
     23 C         139.6915  140.1008  166.0827 C.ar    1  UNL1       -0.0042
     24 N         139.6623  141.6879  159.1581 N.am    1  UNL1       -0.2803
     25 C         138.8391  141.7936  160.4075 C.2     1  UNL1        0.2522
     26 O         138.0968  143.0611  160.7117 O.2     1  UNL1       -0.2697
     27 H         140.1495  140.8560  158.9585 H       1  UNL1        0.1552
     28 C         142.1119  145.9433  157.4577 C.3     1  UNL1        0.0311
     29 C         140.9682  144.9774  157.3626 C.ar    1  UNL1       -0.0209
     30 C         139.9055  145.1734  156.3223 C.ar    1  UNL1       -0.0084
     31 C         138.7618  144.2075  156.2272 C.ar    1  UNL1       -0.0209
     32 C         137.6991  144.4036  155.1868 C.3     1  UNL1        0.0311
     33 C         138.6807  143.0457  157.1725 C.ar    1  UNL1        0.0104
     34 C         139.7434  142.8497  158.2128 C.ar    1  UNL1        0.0499
     35 C         140.8871  143.8156  158.3079 C.ar    1  UNL1        0.0104
@<TRIPOS>BOND
     1    28    29    1
     2    29    30   ar
     3    30    31   ar
     4    31    32    1
     5    31    33   ar
     6    33    34   ar
     7    34    24    1
     8    24    25   am
     9    25    26    2
    10    25     1    1
    11     1     2   ar
    12     2     3   ar
    13     3     4   ar
    14     4     5   ar
    15     5    16    1
    16    16    17   ar
    17    17    18   ar
    18    18    19    1
    19    18    20   ar
    20    20    21   ar
    21    21    22    1
    22    21    23   ar
    23     5     6   ar
    24     6     7    1
    25     7     8    1
    26     8     9    1
    27     9    10    1
    28    10    11    1
    29    10    12    1
    30    12    13    1
    31    34    35   ar
    32    35    29   ar
    33     6     1   ar
    34    13     7    1
    35    23    16   ar
    36    24    27    1
    37    11    14    1
    38    11    15    1
@<TRIPOS>MOLECULE
*****
 35 38 0 0 0
SMALL
GASTEIGER

@<TRIPOS>ATOM
      1 C         138.7588  140.6324  161.3505 C.ar    1  UNL1        0.0861
      2 C         137.8808  139.4609  161.0239 C.ar    1  UNL1        0.1046
      3 N         137.7992  138.2985  161.9685 N.ar    1  UNL1       -0.2421
      4 C         138.5955  138.3077  163.2397 C.ar    1  UNL1        0.1001
      5 C         139.4734  139.4793  163.5662 C.ar    1  UNL1        0.0326
      6 C         139.5551  140.6416  162.6217 C.ar    1  UNL1        0.0552
      7 N         140.4330  141.8132  162.9482 N.pl3   1  UNL1       -0.3072
      8 C         141.8514  141.8462  162.4613 C.3     1  UNL1        0.0921
      9 C         142.7294  143.0177  162.7878 C.3     1  UNL1        0.0369
     10 C         142.1890  144.1563  163.6013 C.3     1  UNL1        0.0542
     11 N         143.0670  145.3278  163.9278 N.3     1  UNL1       -0.3221
     12 C         140.7706  144.1233  164.0882 C.3     1  UNL1        0.0369
     13 C         139.8926  142.9517  163.7617 C.3     1  UNL1        0.0921
     14 H         143.9910  145.1842  163.5204 H       1  UNL1        0.1188
     15 H         143.1519  145.4173  164.9403 H       1  UNL1        0.1188
     16 C         140.2697  139.4885  164.8374 C.ar    1  UNL1        0.0021
     17 C         139.6914  140.0973  166.0803 C.ar    1  UNL1       -0.0042
     18 C         140.4877  140.1065  167.3515 C.ar    1  UNL1       -0.0222
     19 C         139.9093  140.7153  168.5944 C.3     1  UNL1        0.0310
     20 C         141.8623  139.5068  167.3797 C.ar    1  UNL1       -0.0085
     21 C         142.4406  138.8980  166.1368 C.ar    1  UNL1       -0.0222
     22 C         143.8153  138.2984  166.1650 C.3     1  UNL1        0.0310
     23 C         141.6443  138.8888  164.8657 C.ar    1  UNL1       -0.0042
     24 N         139.6623  141.6888  159.1556 N.am    1  UNL1       -0.2803
     25 C         138.8405  141.7948  160.4059 C.2     1  UNL1        0.2522
     26 O         138.1003  143.0631  160.7117 O.2     1  UNL1       -0.2697
     27 H         140.1480  140.8564  158.9549 H       1  UNL1        0.1552
     28 C         137.7004  144.4080  155.1860 C.3     1  UNL1        0.0311
     29 C         138.7630  144.2108  156.2262 C.ar    1  UNL1       -0.0209
     30 C         139.9072  145.1759  156.3218 C.ar    1  UNL1       -0.0084
     31 C         140.9698  144.9787  157.3620 C.ar    1  UNL1       -0.0209
     32 C         142.1141  145.9439  157.4576 C.3     1  UNL1        0.0311
     33 C         140.8882  143.8164  158.3066 C.ar    1  UNL1        0.0104
     34 C         139.7439  142.8512  158.2110 C.ar    1  UNL1        0.0499
     35 C         138.6814  143.0484  157.1708 C.ar    1  UNL1        0.0104
@<TRIPOS>BOND
     1    28    29    1
     2    29    30   ar
     3    30    31   ar
     4    31    32    1
     5    31    33   ar
     6    33    34   ar
     7    34    24    1
     8    24    25   am
     9    25    26    2
    10    25     1    1
    11     1     2   ar
    12     2     3   ar
    13     3     4   ar
    14     4     5   ar
    15     5    16    1
    16    16    17   ar
    17    17    18   ar
    18    18    19    1
    19    18    20   ar
    20    20    21   ar
    21    21    22    1
    22    21    23   ar
    23     5     6   ar
    24     6     7    1
    25     7     8    1
    26     8     9    1
    27     9    10    1
    28    10    11    1
    29    10    12    1
    30    12    13    1
    31    34    35   ar
    32    35    29   ar
    33     6     1   ar
    34    13     7    1
    35    23    16   ar
    36    24    27    1
    37    11    14    1
    38    11    15    1
@<TRIPOS>MOLECULE
*****
 35 38 0 0 0
SMALL
GASTEIGER

@<TRIPOS>ATOM
      1 C         143.5711  141.3845  162.6223 C.ar    1  UNL1        0.0861
      2 C         144.8234  140.5862  162.8329 C.ar    1  UNL1        0.1046
      3 N         144.9620  139.7145  164.0457 N.ar    1  UNL1       -0.2421
      4 C         143.8483  139.6411  165.0478 C.ar    1  UNL1        0.1001
      5 C         142.5960  140.4394  164.8372 C.ar    1  UNL1        0.0326
      6 C         142.4574  141.3111  163.6244 C.ar    1  UNL1        0.0552
      7 N         141.2050  142.1094  163.4137 N.pl3   1  UNL1       -0.3072
      8 C         141.0986  143.4984  163.9699 C.3     1  UNL1        0.0921
      9 C         139.8463  144.2968  163.7592 C.3     1  UNL1        0.0369
     10 C         138.7004  143.7062  162.9923 C.3     1  UNL1        0.0542
     11 N         137.4482  144.5045  162.7817 N.3     1  UNL1       -0.3221
     12 C         138.8068  142.3172  162.4361 C.3     1  UNL1        0.0369
     13 C         140.0592  141.5188  162.6468 C.3     1  UNL1        0.0921
     14 H         137.5491  145.4182  163.2237 H       1  UNL1        0.1188
     15 H         136.6571  144.0118  163.1962 H       1  UNL1        0.1188
     16 C         141.4823  140.3660  165.8393 C.ar    1  UNL1        0.0021
     17 C         141.5102  141.2413  167.0571 C.ar    1  UNL1       -0.0042
     18 C         140.3965  141.1678  168.0592 C.ar    1  UNL1       -0.0222
     19 C         140.4245  142.0432  169.2770 C.3     1  UNL1        0.0310
     20 C         139.2548  140.2192  167.8436 C.ar    1  UNL1       -0.0085
     21 C         139.2269  139.3439  166.6258 C.ar    1  UNL1       -0.0222
     22 C         138.0852  138.3951  166.4101 C.3     1  UNL1        0.0310
     23 C         140.3406  139.4173  165.6236 C.ar    1  UNL1       -0.0042
     24 N         142.6608  141.7683  160.2193 N.am    1  UNL1       -0.2803
     25 C         143.4324  142.2563  161.4094 C.2     1  UNL1        0.2522
     26 O         144.0655  143.6159  161.3868 O.2     1  UNL1       -0.2697
     27 H         142.2453  140.8759  160.2342 H       1  UNL1        0.1552
     28 C         143.9968  142.9261  155.3331 C.3     1  UNL1        0.0311
     29 C         143.1902  143.2189  156.5634 C.ar    1  UNL1       -0.0209
     30 C         142.2449  144.3835  156.5809 C.ar    1  UNL1       -0.0084
     31 C         141.4383  144.6763  157.8112 C.ar    1  UNL1       -0.0209
     32 C         140.4930  145.8409  157.8286 C.3     1  UNL1        0.0311
     33 C         141.5769  143.8046  159.0240 C.ar    1  UNL1        0.0104
     34 C         142.5221  142.6401  159.0065 C.ar    1  UNL1        0.0499
     35 C         143.3288  142.3473  157.7762 C.ar    1  UNL1        0.0104
@<TRIPOS>BOND
     1    28    29    1
     2    29    30   ar
     3    30    31   ar
     4    31    32    1
     5    31    33   ar
     6    33    34   ar
     7    34    24    1
     8    24    25   am
     9    25    26    2
    10    25     1    1
    11     1     2   ar
    12     2     3   ar
    13     3     4   ar
    14     4     5   ar
    15     5    16    1
    16    16    17   ar
    17    17    18   ar
    18    18    19    1
    19    18    20   ar
    20    20    21   ar
    21    21    22    1
    22    21    23   ar
    23     5     6   ar
    24     6     7    1
    25     7     8    1
    26     8     9    1
    27     9    10    1
    28    10    11    1
    29    10    12    1
    30    12    13    1
    31    34    35   ar
    32    35    29   ar
    33     6     1   ar
    34    13     7    1
    35    23    16   ar
    36    24    27    1
    37    11    14    1
    38    11    15    1
@<TRIPOS>MOLECULE
*****
 35 38 0 0 0
SMALL
GASTEIGER

@<TRIPOS>ATOM
      1 C         143.5713  141.3837  162.6223 C.ar    1  UNL1        0.0861
      2 C         144.8230  140.5849  162.8343 C.ar    1  UNL1        0.1046
      3 N         144.9599  139.7131  164.0472 N.ar    1  UNL1       -0.2421
      4 C         143.8451  139.6401  165.0481 C.ar    1  UNL1        0.1001
      5 C         142.5933  140.4389  164.8361 C.ar    1  UNL1        0.0326
      6 C         142.4564  141.3106  163.6231 C.ar    1  UNL1        0.0552
      7 N         141.2046  142.1095  163.4111 N.pl3   1  UNL1       -0.3072
      8 C         141.0982  143.4986  163.9669 C.3     1  UNL1        0.0921
      9 C         139.8465  144.2975  163.7548 C.3     1  UNL1        0.0369
     10 C         138.7010  143.7071  162.9869 C.3     1  UNL1        0.0542
     11 N         137.4493  144.5060  162.7749 N.3     1  UNL1       -0.3221
     12 C         138.8074  142.3180  162.4312 C.3     1  UNL1        0.0369
     13 C         140.0592  141.5191  162.6432 C.3     1  UNL1        0.0921
     14 H         137.5502  145.4197  163.2168 H       1  UNL1        0.1188
     15 H         136.6576  144.0137  163.1888 H       1  UNL1        0.1188
     16 C         141.4785  140.3658  165.8369 C.ar    1  UNL1        0.0021
     17 C         140.3355  139.4193  165.6188 C.ar    1  UNL1       -0.0042
     18 C         139.2206  139.3463  166.6196 C.ar    1  UNL1       -0.0222
     19 C         138.0776  138.3996  166.4014 C.3     1  UNL1        0.0310
     20 C         139.2487  140.2198  167.8387 C.ar    1  UNL1       -0.0085
     21 C         140.3917  141.1663  168.0569 C.ar    1  UNL1       -0.0222
     22 C         140.4198  142.0399  169.2760 C.3     1  UNL1        0.0310
     23 C         141.5066  141.2393  167.0560 C.ar    1  UNL1       -0.0042
     24 N         142.6625  141.7685  160.2189 N.am    1  UNL1       -0.2803
     25 C         143.4343  142.2555  161.4093 C.2     1  UNL1        0.2522
     26 O         144.0692  143.6144  161.3869 O.2     1  UNL1       -0.2697
     27 H         142.2459  140.8767  160.2336 H       1  UNL1        0.1552
     28 C         140.5003  145.8431  157.8268 C.3     1  UNL1        0.0311
     29 C         141.4444  144.6777  157.8099 C.ar    1  UNL1       -0.0209
     30 C         142.2516  144.3841  156.5802 C.ar    1  UNL1       -0.0084
     31 C         143.1958  143.2186  156.5634 C.ar    1  UNL1       -0.0209
     32 C         144.0030  142.9250  155.3336 C.3     1  UNL1        0.0311
     33 C         143.3327  142.3468  157.7762 C.ar    1  UNL1        0.0104
     34 C         142.5256  142.6404  159.0059 C.ar    1  UNL1        0.0499
     35 C         141.5814  143.8058  159.0228 C.ar    1  UNL1        0.0104
@<TRIPOS>BOND
     1    28    29    1
     2    29    30   ar
     3    30    31   ar
     4    31    32    1
     5    31    33   ar
     6    33    34   ar
     7    34    24    1
     8    24    25   am
     9    25    26    2
    10    25     1    1
    11     1     2   ar
    12     2     3   ar
    13     3     4   ar
    14     4     5   ar
    15     5    16    1
    16    16    17   ar
    17    17    18   ar
    18    18    19    1
    19    18    20   ar
    20    20    21   ar
    21    21    22    1
    22    21    23   ar
    23     5     6   ar
    24     6     7    1
    25     7     8    1
    26     8     9    1
    27     9    10    1
    28    10    11    1
    29    10    12    1
    30    12    13    1
    31    34    35   ar
    32    35    29   ar
    33     6     1   ar
    34    13     7    1
    35    23    16   ar
    36    24    27    1
    37    11    14    1
    38    11    15    1
@<TRIPOS>MOLECULE
*****
 35 38 0 0 0
SMALL
GASTEIGER

@<TRIPOS>ATOM
      1 C         140.2926  138.6960  160.8706 C.ar    1  UNL1        0.0861
      2 C         138.9247  138.1117  160.6776 C.ar    1  UNL1        0.1046
      3 N         137.8399  138.3973  161.6734 N.ar    1  UNL1       -0.2421
      4 C         138.1230  139.2672  162.8621 C.ar    1  UNL1        0.1001
      5 C         139.4909  139.8515  163.0551 C.ar    1  UNL1        0.0326
      6 C         140.5757  139.5659  162.0594 C.ar    1  UNL1        0.0552
      7 N         141.9438  140.1502  162.2524 N.pl3   1  UNL1       -0.3072
      8 C         142.9725  139.4039  163.0489 C.3     1  UNL1        0.0921
      9 C         144.3405  139.9881  163.2419 C.3     1  UNL1        0.0369
     10 C         144.6797  141.3188  162.6383 C.3     1  UNL1        0.0542
     11 N         146.0477  141.9031  162.8313 N.3     1  UNL1       -0.3221
     12 C         143.6509  142.0652  161.8418 C.3     1  UNL1        0.0369
     13 C         142.2829  141.4809  161.6488 C.3     1  UNL1        0.0921
     14 H         146.6130  141.2667  163.3933 H       1  UNL1        0.1188
     15 H         145.9697  142.8008  163.3092 H       1  UNL1        0.1188
     16 C         139.7740  140.7213  164.2439 C.ar    1  UNL1        0.0021
     17 C         139.4188  142.1782  164.2088 C.ar    1  UNL1       -0.0042
     18 C         139.7019  143.0481  165.3976 C.ar    1  UNL1       -0.0222
     19 C         139.3466  144.5050  165.3624 C.3     1  UNL1        0.0310
     20 C         140.3403  142.4611  166.6214 C.ar    1  UNL1       -0.0085
     21 C         140.6955  141.0042  166.6565 C.ar    1  UNL1       -0.0222
     22 C         141.3339  140.4172  167.8804 C.3     1  UNL1        0.0310
     23 C         140.4124  140.1344  165.4678 C.ar    1  UNL1       -0.0042
     24 N         141.2545  138.9130  158.4669 N.am    1  UNL1       -0.2803
     25 C         141.3775  138.4105  159.8748 C.2     1  UNL1        0.2522
     26 O         142.5854  137.6224  160.2871 O.2     1  UNL1       -0.2697
     27 H         140.4618  139.4303  158.1964 H       1  UNL1        0.1552
     28 C         145.2562  140.5428  155.5807 C.3     1  UNL1        0.0311
     29 C         144.3403  139.4424  156.0280 C.ar    1  UNL1       -0.0209
     30 C         144.5092  138.0565  155.4797 C.ar    1  UNL1       -0.0084
     31 C         143.5932  136.9561  155.9270 C.ar    1  UNL1       -0.0209
     32 C         143.7621  135.5702  155.3786 C.3     1  UNL1        0.0311
     33 C         142.5083  137.2416  156.9228 C.ar    1  UNL1        0.0104
     34 C         142.3394  138.6275  157.4711 C.ar    1  UNL1        0.0499
     35 C         143.2554  139.7279  157.0238 C.ar    1  UNL1        0.0104
@<TRIPOS>BOND
     1    28    29    1
     2    29    30   ar
     3    30    31   ar
     4    31    32    1
     5    31    33   ar
     6    33    34   ar
     7    34    24    1
     8    24    25   am
     9    25    26    2
    10    25     1    1
    11     1     2   ar
    12     2     3   ar
    13     3     4   ar
    14     4     5   ar
    15     5    16    1
    16    16    17   ar
    17    17    18   ar
    18    18    19    1
    19    18    20   ar
    20    20    21   ar
    21    21    22    1
    22    21    23   ar
    23     5     6   ar
    24     6     7    1
    25     7     8    1
    26     8     9    1
    27     9    10    1
    28    10    11    1
    29    10    12    1
    30    12    13    1
    31    34    35   ar
    32    35    29   ar
    33     6     1   ar
    34    13     7    1
    35    23    16   ar
    36    24    27    1
    37    11    14    1
    38    11    15    1
@<TRIPOS>MOLECULE
*****
 35 38 0 0 0
SMALL
GASTEIGER

@<TRIPOS>ATOM
      1 C         140.2909  138.6917  160.8882 C.ar    1  UNL1        0.0861
      2 C         138.9281  138.0883  160.7188 C.ar    1  UNL1        0.1046
      3 N         137.8463  138.3879  161.7136 N.ar    1  UNL1       -0.2421
      4 C         138.1271  139.2910  162.8779 C.ar    1  UNL1        0.1001
      5 C         139.4899  139.8944  163.0474 C.ar    1  UNL1        0.0326
      6 C         140.5717  139.5948  162.0525 C.ar    1  UNL1        0.0552
      7 N         141.9346  140.1982  162.2220 N.pl3   1  UNL1       -0.3072
      8 C         142.2570  141.5148  161.5796 C.3     1  UNL1        0.0921
      9 C         143.6197  142.1182  161.7490 C.3     1  UNL1        0.0369
     10 C         144.6602  141.4050  162.5608 C.3     1  UNL1        0.0542
     11 N         146.0229  142.0085  162.7301 N.3     1  UNL1       -0.3221
     12 C         144.3378  140.0884  163.2031 C.3     1  UNL1        0.0369
     13 C         142.9750  139.4850  163.0337 C.3     1  UNL1        0.0921
     14 H         146.0660  142.8966  162.2303 H       1  UNL1        0.1188
     15 H         146.7257  141.3721  162.3539 H       1  UNL1        0.1188
     16 C         139.7708  140.7975  164.2117 C.ar    1  UNL1        0.0021
     17 C         140.4200  140.2482  165.4473 C.ar    1  UNL1       -0.0042
     18 C         140.7009  141.1513  166.6116 C.ar    1  UNL1       -0.0222
     19 C         141.3502  140.6020  167.8472 C.3     1  UNL1        0.0310
     20 C         140.3326  142.6036  166.5403 C.ar    1  UNL1       -0.0085
     21 C         139.6833  143.1528  165.3046 C.ar    1  UNL1       -0.0222
     22 C         139.3150  144.6052  165.2333 C.3     1  UNL1        0.0310
     23 C         139.4024  142.2498  164.1404 C.ar    1  UNL1       -0.0042
     24 N         141.2316  138.8485  158.4715 N.am    1  UNL1       -0.2803
     25 C         141.3728  138.3921  159.8934 C.2     1  UNL1        0.2522
     26 O         142.5959  137.6360  160.3204 O.2     1  UNL1       -0.2697
     27 H         140.4289  139.3448  158.1912 H       1  UNL1        0.1552
     28 C         143.7372  135.4597  155.4321 C.3     1  UNL1        0.0311
     29 C         143.5663  136.8545  155.9570 C.ar    1  UNL1       -0.0209
     30 C         144.4773  137.9496  155.4870 C.ar    1  UNL1       -0.0084
     31 C         144.3064  139.3443  156.0119 C.ar    1  UNL1       -0.0209
     32 C         145.2175  140.4394  155.5419 C.3     1  UNL1        0.0311
     33 C         143.2245  139.6440  157.0067 C.ar    1  UNL1        0.0104
     34 C         142.3136  138.5489  157.4767 C.ar    1  UNL1        0.0499
     35 C         142.4845  137.1541  156.9518 C.ar    1  UNL1        0.0104
@<TRIPOS>BOND
     1    28    29    1
     2    29    30   ar
     3    30    31   ar
     4    31    32    1
     5    31    33   ar
     6    33    34   ar
     7    34    24    1
     8    24    25   am
     9    25    26    2
    10    25     1    1
    11     1     2   ar
    12     2     3   ar
    13     3     4   ar
    14     4     5   ar
    15     5    16    1
    16    16    17   ar
    17    17    18   ar
    18    18    19    1
    19    18    20   ar
    20    20    21   ar
    21    21    22    1
    22    21    23   ar
    23     5     6   ar
    24     6     7    1
    25     7     8    1
    26     8     9    1
    27     9    10    1
    28    10    11    1
    29    10    12    1
    30    12    13    1
    31    34    35   ar
    32    35    29   ar
    33     6     1   ar
    34    13     7    1
    35    23    16   ar
    36    24    27    1
    37    11    14    1
    38    11    15    1
@<TRIPOS>MOLECULE
*****
 35 38 0 0 0
SMALL
GASTEIGER

@<TRIPOS>ATOM
      1 C         139.4085  141.2081  163.8765 C.ar    1  UNL1        0.0861
      2 C         137.9173  141.1466  163.7261 C.ar    1  UNL1        0.1046
      3 N         137.2853  141.4317  162.3961 N.ar    1  UNL1       -0.2421
      4 C         138.1444  141.7783  161.2163 C.ar    1  UNL1        0.1001
      5 C         139.6355  141.8399  161.3666 C.ar    1  UNL1        0.0326
      6 C         140.2676  141.5548  162.6967 C.ar    1  UNL1        0.0552
      7 N         141.7588  141.6163  162.8471 N.pl3   1  UNL1       -0.3072
      8 C         142.4221  142.9083  163.2221 C.3     1  UNL1        0.0921
      9 C         143.9132  142.9699  163.3725 C.3     1  UNL1        0.0369
     10 C         144.7412  141.7394  163.1479 C.3     1  UNL1        0.0542
     11 N         146.2323  141.8009  163.2983 N.3     1  UNL1       -0.3221
     12 C         144.0779  140.4473  162.7729 C.3     1  UNL1        0.0369
     13 C         142.5866  140.3858  162.6226 C.3     1  UNL1        0.0921
     14 H         146.5094  142.7486  163.5543 H       1  UNL1        0.1188
     15 H         146.6740  141.5443  162.4154 H       1  UNL1        0.1188
     16 C         140.4946  142.1865  160.1869 C.ar    1  UNL1        0.0021
     17 C         140.7175  143.6231  159.8177 C.ar    1  UNL1       -0.0042
     18 C         141.5766  143.9698  158.6380 C.ar    1  UNL1       -0.0222
     19 C         141.7994  145.4065  158.2688 C.3     1  UNL1        0.0310
     20 C         142.2128  142.8798  157.8274 C.ar    1  UNL1       -0.0085
     21 C         141.9899  141.4431  158.1966 C.ar    1  UNL1       -0.0222
     22 C         142.6261  140.3530  157.3860 C.3     1  UNL1        0.0310
     23 C         141.1308  141.0965  159.3763 C.ar    1  UNL1       -0.0042
     24 N         140.0249  141.9669  166.2837 N.am    1  UNL1       -0.2803
     25 C         140.0406  140.9230  165.2066 C.2     1  UNL1        0.2522
     26 O         140.6885  139.5940  165.4596 O.2     1  UNL1       -0.2697
     27 H         139.5996  142.8391  166.1176 H       1  UNL1        0.1552
     28 C         139.8284  139.7405  170.9746 C.3     1  UNL1        0.0311
     29 C         140.5587  140.5686  169.9592 C.ar    1  UNL1       -0.0209
     30 C         141.9211  141.1115  170.2739 C.ar    1  UNL1       -0.0084
     31 C         142.6515  141.9395  169.2586 C.ar    1  UNL1       -0.0209
     32 C         144.0139  142.4825  169.5734 C.3     1  UNL1        0.0311
     33 C         142.0194  142.2247  167.9285 C.ar    1  UNL1        0.0104
     34 C         140.6570  141.6817  167.6138 C.ar    1  UNL1        0.0499
     35 C         139.9267  140.8537  168.6292 C.ar    1  UNL1        0.0104
@<TRIPOS>BOND
     1    28    29    1
     2    29    30   ar
     3    30    31   ar
     4    31    32    1
     5    31    33   ar
     6    33    34   ar
     7    34    24    1
     8    24    25   am
     9    25    26    2
    10    25     1    1
    11     1     2   ar
    12     2     3   ar
    13     3     4   ar
    14     4     5   ar
    15     5    16    1
    16    16    17   ar
    17    17    18   ar
    18    18    19    1
    19    18    20   ar
    20    20    21   ar
    21    21    22    1
    22    21    23   ar
    23     5     6   ar
    24     6     7    1
    25     7     8    1
    26     8     9    1
    27     9    10    1
    28    10    11    1
    29    10    12    1
    30    12    13    1
    31    34    35   ar
    32    35    29   ar
    33     6     1   ar
    34    13     7    1
    35    23    16   ar
    36    24    27    1
    37    11    14    1
    38    11    15    1
@<TRIPOS>MOLECULE
*****
 35 38 0 0 0
SMALL
GASTEIGER

@<TRIPOS>ATOM
      1 C         143.5795  141.3260  163.9349 C.ar    1  UNL1        0.0861
      2 C         145.0718  141.4138  163.8110 C.ar    1  UNL1        0.1046
      3 N         145.6926  141.8468  162.5160 N.ar    1  UNL1       -0.2421
      4 C         144.8212  142.1919  161.3449 C.ar    1  UNL1        0.1001
      5 C         143.3289  142.1041  161.4688 C.ar    1  UNL1        0.0326
      6 C         142.7081  141.6711  162.7638 C.ar    1  UNL1        0.0552
      7 N         141.2158  141.5833  162.8877 N.pl3   1  UNL1       -0.3072
      8 C         140.4412  142.7358  163.4551 C.3     1  UNL1        0.0921
      9 C         138.9490  142.6480  163.5791 C.3     1  UNL1        0.0369
     10 C         138.2312  141.4077  163.1357 C.3     1  UNL1        0.0542
     11 N         136.7389  141.3199  163.2596 N.3     1  UNL1       -0.3221
     12 C         139.0057  140.2552  162.5683 C.3     1  UNL1        0.0369
     13 C         140.4981  140.3431  162.4443 C.3     1  UNL1        0.0921
     14 H         136.3796  142.1857  163.6619 H       1  UNL1        0.1188
     15 H         136.4935  140.5363  163.8648 H       1  UNL1        0.1188
     16 C         142.4575  142.4492  160.2977 C.ar    1  UNL1        0.0021
     17 C         141.8778  143.8272  160.1745 C.ar    1  UNL1       -0.0042
     18 C         141.0063  144.1723  159.0034 C.ar    1  UNL1       -0.0222
     19 C         140.4266  145.5503  158.8803 C.3     1  UNL1        0.0310
     20 C         140.7146  143.1395  157.9555 C.ar    1  UNL1       -0.0085
     21 C         141.2943  141.7616  158.0786 C.ar    1  UNL1       -0.0222
     22 C         141.0026  140.7287  157.0307 C.3     1  UNL1        0.0310
     23 C         142.1658  141.4165  159.2497 C.ar    1  UNL1       -0.0042
     24 N         143.0516  141.7764  166.4386 N.am    1  UNL1       -0.2803
     25 C         142.9586  140.8930  165.2299 C.2     1  UNL1        0.2522
     26 O         142.2448  139.5766  165.3162 O.2     1  UNL1       -0.2697
     27 H         143.5202  142.6404  166.3819 H       1  UNL1        0.1552
     28 C         139.7374  142.6322  170.3480 C.3     1  UNL1        0.0311
     29 C         140.7736  141.7714  169.6883 C.ar    1  UNL1       -0.0209
     30 C         141.1889  140.4776  170.3236 C.ar    1  UNL1       -0.0084
     31 C         142.2251  139.6168  169.6639 C.ar    1  UNL1       -0.0209
     32 C         142.6404  138.3229  170.2993 C.3     1  UNL1        0.0311
     33 C         142.8460  140.0497  168.3689 C.ar    1  UNL1        0.0104
     34 C         142.4307  141.3435  167.7336 C.ar    1  UNL1        0.0499
     35 C         141.3945  142.2043  168.3933 C.ar    1  UNL1        0.0104
@<TRIPOS>BOND
     1    28    29    1
     2    29    30   ar
     3    30    31   ar
     4    31    32    1
     5    31    33   ar
     6    33    34   ar
     7    34    24    1
     8    24    25   am
     9    25    26    2
    10    25     1    1
    11     1     2   ar
    12     2     3   ar
    13     3     4   ar
    14     4     5   ar
    15     5    16    1
    16    16    17   ar
    17    17    18   ar
    18    18    19    1
    19    18    20   ar
    20    20    21   ar
    21    21    22    1
    22    21    23   ar
    23     5     6   ar
    24     6     7    1
    25     7     8    1
    26     8     9    1
    27     9    10    1
    28    10    11    1
    29    10    12    1
    30    12    13    1
    31    34    35   ar
    32    35    29   ar
    33     6     1   ar
    34    13     7    1
    35    23    16   ar
    36    24    27    1
    37    11    14    1
    38    11    15    1
@<TRIPOS>MOLECULE
*****
 35 38 0 0 0
SMALL
GASTEIGER

@<TRIPOS>ATOM
      1 C         140.0062  143.7436  161.8431 C.ar    1  UNL1        0.0861
      2 C         138.8477  144.6947  161.7869 C.ar    1  UNL1        0.1046
      3 N         137.8405  144.7163  162.8982 N.ar    1  UNL1       -0.2421
      4 C         137.9918  143.7867  164.0657 C.ar    1  UNL1        0.1001
      5 C         139.1503  142.8356  164.1219 C.ar    1  UNL1        0.0326
      6 C         140.1575  142.8140  163.0105 C.ar    1  UNL1        0.0552
      7 N         141.3161  141.8629  163.0667 N.pl3   1  UNL1       -0.3072
      8 C         141.1847  140.4858  162.4866 C.3     1  UNL1        0.0921
      9 C         142.3432  139.5347  162.5427 C.3     1  UNL1        0.0369
     10 C         143.6332  139.9606  163.1789 C.3     1  UNL1        0.0542
     11 N         144.7917  139.0095  163.2350 N.3     1  UNL1       -0.3221
     12 C         143.7645  141.3376  163.7590 C.3     1  UNL1        0.0369
     13 C         142.6060  142.2888  163.7029 C.3     1  UNL1        0.0921
     14 H         144.5282  138.1265  162.7975 H       1  UNL1        0.1188
     15 H         145.0484  138.8434  164.2081 H       1  UNL1        0.1188
     16 C         139.3017  141.9061  165.2894 C.ar    1  UNL1        0.0021
     17 C         140.1645  142.2970  166.4524 C.ar    1  UNL1       -0.0042
     18 C         140.3158  141.3675  167.6199 C.ar    1  UNL1       -0.0222
     19 C         141.1787  141.7585  168.7830 C.3     1  UNL1        0.0310
     20 C         139.6043  140.0470  167.6244 C.ar    1  UNL1       -0.0085
     21 C         138.7415  139.6560  166.4613 C.ar    1  UNL1       -0.0222
     22 C         138.0300  138.3355  166.4658 C.3     1  UNL1        0.0310
     23 C         138.5902  140.5856  165.2938 C.ar    1  UNL1       -0.0042
     24 N         140.7339  142.9421  159.4813 N.am    1  UNL1       -0.2803
     25 C         141.0134  143.7220  160.7317 C.2     1  UNL1        0.2522
     26 O         142.3001  144.4803  160.8708 O.2     1  UNL1       -0.2697
     27 H         139.8894  142.4444  159.3899 H       1  UNL1        0.1552
     28 C         144.9302  140.8397  157.2515 C.3     1  UNL1        0.0311
     29 C         143.8393  141.8693  157.2550 C.ar    1  UNL1       -0.0209
     30 C         143.7556  142.8772  156.1473 C.ar    1  UNL1       -0.0084
     31 C         142.6648  143.9067  156.1509 C.ar    1  UNL1       -0.0209
     32 C         142.5811  144.9147  155.0431 C.3     1  UNL1        0.0311
     33 C         141.6575  143.9284  157.2622 C.ar    1  UNL1        0.0104
     34 C         141.7412  142.9205  158.3699 C.ar    1  UNL1        0.0499
     35 C         142.8321  141.8909  158.3663 C.ar    1  UNL1        0.0104
@<TRIPOS>BOND
     1    28    29    1
     2    29    30   ar
     3    30    31   ar
     4    31    32    1
     5    31    33   ar
     6    33    34   ar
     7    34    24    1
     8    24    25   am
     9    25    26    2
    10    25     1    1
    11     1     2   ar
    12     2     3   ar
    13     3     4   ar
    14     4     5   ar
    15     5    16    1
    16    16    17   ar
    17    17    18   ar
    18    18    19    1
    19    18    20   ar
    20    20    21   ar
    21    21    22    1
    22    21    23   ar
    23     5     6   ar
    24     6     7    1
    25     7     8    1
    26     8     9    1
    27     9    10    1
    28    10    11    1
    29    10    12    1
    30    12    13    1
    31    34    35   ar
    32    35    29   ar
    33     6     1   ar
    34    13     7    1
    35    23    16   ar
    36    24    27    1
    37    11    14    1
    38    11    15    1
