@<TRIPOS>MOLECULE
*****
 27 30 0 0 0
SMALL
GASTEIGER

@<TRIPOS>ATOM
      1 C         140.7581  138.7008  158.0089 C.3     1  UNL1        0.1355
      2 C         140.8383  137.4852  157.1337 C.3     1  UNL1        0.0700
      3 C         142.1679  137.5008  156.4395 C.3     1  UNL1        0.1834
      4 C         142.9094  138.7260  156.8857 C.3     1  UNL1        0.1130
      5 N         142.0380  139.4676  157.8556 N.3     1  UNL1       -0.2882
      6 H         141.8408  140.4025  157.4988 H       1  UNL1        0.1237
      7 O         138.3907  139.7350  158.2844 O.2     1  UNL1       -0.2734
      8 C         139.6010  139.0824  158.8838 C.2     1  UNL1        0.2401
      9 N         139.6541  138.8114  160.3582 N.am    1  UNL1       -0.2770
     10 C         140.9087  138.1558  160.8545 C.3     1  UNL1        0.0949
     11 C         141.2646  137.7587  162.2566 C.3     1  UNL1        0.0388
     12 C         140.4540  137.9192  163.5084 C.3     1  UNL1        0.0739
     13 N         139.0872  138.5163  163.6675 N.3     1  UNL1       -0.2725
     14 C         138.1935  139.1005  162.6140 C.3     1  UNL1        0.0938
     15 C         138.4458  139.2318  161.1412 C.3     1  UNL1        0.1107
     16 C         138.5421  138.5313  165.0648 C.3     1  UNL1        0.0576
     17 C         138.1860  137.4818  166.0757 C.3     1  UNL1        0.0160
     18 C         137.7712  138.5523  167.0410 C.3     1  UNL1        0.0028
     19 C         138.1273  139.6019  166.0302 C.3     1  UNL1        0.0160
     20 O         142.6682  136.4718  155.4694 O.3     1  UNL1       -0.4776
     21 C         142.7479  135.0310  155.8791 C.ar    1  UNL1        0.1407
     22 C         141.7970  134.0306  155.2916 C.ar    1  UNL1        0.0370
     23 C         141.8767  132.5899  155.7012 C.ar    1  UNL1        0.0054
     24 C         142.9071  132.1494  156.6983 C.ar    1  UNL1        0.0298
     25 C         143.8580  133.1499  157.2857 C.ar    1  UNL1        0.1432
     26 F         144.8885  132.7095  158.2828 F       1  UNL1       -0.2041
     27 C         143.7783  134.5906  156.8761 C.ar    1  UNL1        0.0665
@<TRIPOS>BOND
     1     7     8    2
     2     8     1    1
     3     1     2    1
     4     2     3    1
     5     3    20    1
     6    20    21    1
     7    21    22   ar
     8    22    23   ar
     9    23    24   ar
    10    24    25   ar
    11    25    26    1
    12    25    27   ar
    13     3     4    1
    14     4     5    1
    15     8     9   am
    16     9    10    1
    17    10    11    1
    18    11    12    1
    19    12    13    1
    20    13    16    1
    21    16    17    1
    22    17    18    1
    23    18    19    1
    24    13    14    1
    25    14    15    1
    26     5     1    1
    27    15     9    1
    28    27    21   ar
    29    19    16    1
    30     5     6    1
@<TRIPOS>MOLECULE
*****
 27 30 0 0 0
SMALL
GASTEIGER

@<TRIPOS>ATOM
      1 C         142.5911  137.9950  158.9710 C.3     1  UNL1        0.1355
      2 C         142.8403  136.8489  158.0359 C.3     1  UNL1        0.0700
      3 C         142.5615  137.3209  156.6396 C.3     1  UNL1        0.1834
      4 C         142.1401  138.7586  156.7118 C.3     1  UNL1        0.1130
      5 N         142.1584  139.1752  158.1527 N.3     1  UNL1       -0.2882
      6 H         141.2254  139.4717  158.4391 H       1  UNL1        0.1237
      7 O         144.1119  137.8354  161.0714 O.2     1  UNL1       -0.2734
      8 C         142.7473  137.9659  160.4626 C.2     1  UNL1        0.2401
      9 N         141.5388  138.0672  161.3454 N.am    1  UNL1       -0.2770
     10 C         140.2233  138.1942  160.6357 C.3     1  UNL1        0.0949
     11 C         138.8497  138.3135  161.2266 C.3     1  UNL1        0.0388
     12 C         138.4524  138.3353  162.6727 C.3     1  UNL1        0.0739
     13 N         139.3304  138.2432  163.8854 N.3     1  UNL1       -0.2725
     14 C         140.8227  138.1065  163.9514 C.3     1  UNL1        0.0938
     15 C         141.8055  138.0282  162.8208 C.3     1  UNL1        0.1107
     16 C         138.6225  138.2945  165.2068 C.3     1  UNL1        0.0576
     17 C         138.0515  137.2725  166.1447 C.3     1  UNL1        0.0160
     18 C         137.6214  138.3671  167.0757 C.3     1  UNL1        0.0028
     19 C         138.1924  139.3892  166.1380 C.3     1  UNL1        0.0160
     20 O         142.6829  136.4993  155.3905 O.3     1  UNL1       -0.4776
     21 C         142.6520  135.0018  155.4718 C.ar    1  UNL1        0.1407
     22 C         141.3712  134.2632  155.2182 C.ar    1  UNL1        0.0370
     23 C         141.3403  132.7658  155.2995 C.ar    1  UNL1        0.0054
     24 C         142.5900  132.0069  155.6344 C.ar    1  UNL1        0.0298
     25 C         143.8707  132.7454  155.8880 C.ar    1  UNL1        0.1432
     26 F         145.1205  131.9865  156.2229 F       1  UNL1       -0.2041
     27 C         143.9016  134.2429  155.8067 C.ar    1  UNL1        0.0665
@<TRIPOS>BOND
     1     7     8    2
     2     8     1    1
     3     1     2    1
     4     2     3    1
     5     3    20    1
     6    20    21    1
     7    21    22   ar
     8    22    23   ar
     9    23    24   ar
    10    24    25   ar
    11    25    26    1
    12    25    27   ar
    13     3     4    1
    14     4     5    1
    15     8     9   am
    16     9    10    1
    17    10    11    1
    18    11    12    1
    19    12    13    1
    20    13    16    1
    21    16    17    1
    22    17    18    1
    23    18    19    1
    24    13    14    1
    25    14    15    1
    26     5     1    1
    27    15     9    1
    28    27    21   ar
    29    19    16    1
    30     5     6    1
@<TRIPOS>MOLECULE
*****
 27 30 0 0 0
SMALL
GASTEIGER

@<TRIPOS>ATOM
      1 C         141.6677  144.8554  162.5015 C.3     1  UNL1        0.1355
      2 C         141.3210  144.2208  161.1873 C.3     1  UNL1        0.0700
      3 C         140.2219  145.0259  160.5596 C.3     1  UNL1        0.1834
      4 C         139.8895  146.1579  161.4858 C.3     1  UNL1        0.1130
      5 N         140.7831  146.0525  162.6859 N.3     1  UNL1       -0.2882
      6 H         140.2192  145.9398  163.5284 H       1  UNL1        0.1237
      7 O         144.1568  144.7229  163.2342 O.2     1  UNL1       -0.2734
      8 C         142.7153  144.3767  163.4625 C.2     1  UNL1        0.2401
      9 N         142.3214  143.5518  164.6518 N.am    1  UNL1       -0.2770
     10 C         140.8556  143.2629  164.7866 C.3     1  UNL1        0.0949
     11 C         140.1517  142.4756  165.8520 C.3     1  UNL1        0.0388
     12 C         140.7396  141.7831  167.0454 C.3     1  UNL1        0.0739
     13 N         142.1767  141.7065  167.4685 N.3     1  UNL1       -0.2725
     14 C         143.3808  142.3038  166.8025 C.3     1  UNL1        0.0938
     15 C         143.4450  143.1250  165.5489 C.3     1  UNL1        0.1107
     16 C         142.4452  140.9302  168.7235 C.3     1  UNL1        0.0576
     17 C         141.9866  139.6124  169.2742 C.3     1  UNL1        0.0160
     18 C         142.8250  139.8322  170.4984 C.3     1  UNL1        0.0028
     19 C         143.2837  141.1499  169.9479 C.3     1  UNL1        0.0160
     20 O         139.5698  144.7477  159.2376 O.3     1  UNL1       -0.4776
     21 C         140.3351  144.9580  157.9648 C.ar    1  UNL1        0.1407
     22 C         141.3925  143.9764  157.5545 C.ar    1  UNL1        0.0370
     23 C         142.1578  144.1867  156.2818 C.ar    1  UNL1        0.0054
     24 C         141.8657  145.3786  155.4192 C.ar    1  UNL1        0.0298
     25 C         140.8083  146.3602  155.8295 C.ar    1  UNL1        0.1432
     26 F         140.5162  147.5521  154.9669 F       1  UNL1       -0.2041
     27 C         140.0430  146.1498  157.1023 C.ar    1  UNL1        0.0665
@<TRIPOS>BOND
     1     7     8    2
     2     8     1    1
     3     1     2    1
     4     2     3    1
     5     3    20    1
     6    20    21    1
     7    21    22   ar
     8    22    23   ar
     9    23    24   ar
    10    24    25   ar
    11    25    26    1
    12    25    27   ar
    13     3     4    1
    14     4     5    1
    15     8     9   am
    16     9    10    1
    17    10    11    1
    18    11    12    1
    19    12    13    1
    20    13    16    1
    21    16    17    1
    22    17    18    1
    23    18    19    1
    24    13    14    1
    25    14    15    1
    26     5     1    1
    27    15     9    1
    28    27    21   ar
    29    19    16    1
    30     5     6    1
@<TRIPOS>MOLECULE
*****
 27 30 0 0 0
SMALL
GASTEIGER

@<TRIPOS>ATOM
      1 C         139.2734  143.2060  160.0424 C.3     1  UNL1        0.1355
      2 C         138.5017  142.0336  160.5716 C.3     1  UNL1        0.0700
      3 C         137.9811  142.3967  161.9307 C.3     1  UNL1        0.1834
      4 C         138.4309  143.7934  162.2415 C.3     1  UNL1        0.1130
      5 N         139.2296  144.2936  161.0745 N.3     1  UNL1       -0.2882
      6 H         140.1767  144.5229  161.3761 H       1  UNL1        0.1237
      7 O         139.1891  143.6250  157.4798 O.2     1  UNL1       -0.2734
      8 C         139.9671  143.2781  158.7145 C.2     1  UNL1        0.2401
      9 N         141.4387  143.0032  158.6210 N.am    1  UNL1       -0.2770
     10 C         142.1211  142.6660  159.9136 C.3     1  UNL1        0.0949
     11 C         143.5667  142.3441  160.1518 C.3     1  UNL1        0.0388
     12 C         144.6868  142.2801  159.1564 C.3     1  UNL1        0.0739
     13 N         144.6382  142.5220  157.6768 N.3     1  UNL1       -0.2725
     14 C         143.4573  142.8877  156.8273 C.3     1  UNL1        0.0938
     15 C         142.0334  143.1019  157.2476 C.3     1  UNL1        0.1107
     16 C         145.9429  142.3793  156.9508 C.3     1  UNL1        0.0576
     17 C         147.3457  142.8556  157.1866 C.3     1  UNL1        0.0160
     18 C         147.7883  142.1775  155.9240 C.3     1  UNL1        0.0028
     19 C         146.3856  141.7012  155.6880 C.3     1  UNL1        0.0160
     20 O         137.1554  141.5173  162.8224 O.3     1  UNL1       -0.4776
     21 C         137.7755  140.3174  163.4750 C.ar    1  UNL1        0.1407
     22 C         138.1760  139.1347  162.6438 C.ar    1  UNL1        0.0370
     23 C         138.7961  137.9350  163.2963 C.ar    1  UNL1        0.0054
     24 C         139.0158  137.9178  164.7800 C.ar    1  UNL1        0.0298
     25 C         138.6153  139.1005  165.6112 C.ar    1  UNL1        0.1432
     26 F         138.8349  139.0833  167.0950 F       1  UNL1       -0.2041
     27 C         137.9952  140.3003  164.9586 C.ar    1  UNL1        0.0665
@<TRIPOS>BOND
     1     7     8    2
     2     8     1    1
     3     1     2    1
     4     2     3    1
     5     3    20    1
     6    20    21    1
     7    21    22   ar
     8    22    23   ar
     9    23    24   ar
    10    24    25   ar
    11    25    26    1
    12    25    27   ar
    13     3     4    1
    14     4     5    1
    15     8     9   am
    16     9    10    1
    17    10    11    1
    18    11    12    1
    19    12    13    1
    20    13    16    1
    21    16    17    1
    22    17    18    1
    23    18    19    1
    24    13    14    1
    25    14    15    1
    26     5     1    1
    27    15     9    1
    28    27    21   ar
    29    19    16    1
    30     5     6    1
@<TRIPOS>MOLECULE
*****
 27 30 0 0 0
SMALL
GASTEIGER

@<TRIPOS>ATOM
      1 C         138.7700  138.9967  163.0011 C.3     1  UNL1        0.1355
      2 C         139.0066  140.2108  163.8497 C.3     1  UNL1        0.0700
      3 C         139.0023  139.7801  165.2865 C.3     1  UNL1        0.1834
      4 C         138.7632  138.2998  165.3259 C.3     1  UNL1        0.1130
      5 N         138.6196  137.8157  163.9135 N.3     1  UNL1       -0.2882
      6 H         137.7002  137.3933  163.7842 H       1  UNL1        0.1237
      7 O         137.4152  139.3216  160.8082 O.2     1  UNL1       -0.2734
      8 C         138.6968  138.9687  161.5032 C.2     1  UNL1        0.2401
      9 N         139.9051  138.5878  160.7002 N.am    1  UNL1       -0.2770
     10 C         141.1342  138.2535  161.4926 C.3     1  UNL1        0.0949
     11 C         142.4864  137.8404  160.9915 C.3     1  UNL1        0.0388
     12 C         142.9433  137.6595  159.5744 C.3     1  UNL1        0.0739
     13 N         142.1612  137.8471  158.3082 N.3     1  UNL1       -0.2725
     14 C         140.7288  138.2618  158.1466 C.3     1  UNL1        0.0938
     15 C         139.7248  138.5915  159.2112 C.3     1  UNL1        0.1107
     16 C         142.9105  137.5852  157.0355 C.3     1  UNL1        0.0576
     17 C         143.5127  138.4442  155.9632 C.3     1  UNL1        0.0160
     18 C         143.9702  137.2150  155.2355 C.3     1  UNL1        0.0028
     19 C         143.3681  136.3560  156.3076 C.3     1  UNL1        0.0160
     20 O         139.2022  140.6729  166.4752 O.3     1  UNL1       -0.4776
     21 C         140.1535  140.2714  167.5633 C.ar    1  UNL1        0.1407
     22 C         141.5623  139.8847  167.2228 C.ar    1  UNL1        0.0370
     23 C         142.5136  139.4833  168.3108 C.ar    1  UNL1        0.0054
     24 C         142.0562  139.4684  169.7393 C.ar    1  UNL1        0.0298
     25 C         140.6475  139.8551  170.0797 C.ar    1  UNL1        0.1432
     26 F         140.1900  139.8404  171.5082 F       1  UNL1       -0.2041
     27 C         139.6962  140.2566  168.9917 C.ar    1  UNL1        0.0665
@<TRIPOS>BOND
     1     7     8    2
     2     8     1    1
     3     1     2    1
     4     2     3    1
     5     3    20    1
     6    20    21    1
     7    21    22   ar
     8    22    23   ar
     9    23    24   ar
    10    24    25   ar
    11    25    26    1
    12    25    27   ar
    13     3     4    1
    14     4     5    1
    15     8     9   am
    16     9    10    1
    17    10    11    1
    18    11    12    1
    19    12    13    1
    20    13    16    1
    21    16    17    1
    22    17    18    1
    23    18    19    1
    24    13    14    1
    25    14    15    1
    26     5     1    1
    27    15     9    1
    28    27    21   ar
    29    19    16    1
    30     5     6    1
@<TRIPOS>MOLECULE
*****
 27 30 0 0 0
SMALL
GASTEIGER

@<TRIPOS>ATOM
      1 C         143.8467  142.9122  160.5075 C.3     1  UNL1        0.1355
      2 C         142.7046  143.6614  161.1275 C.3     1  UNL1        0.0700
      3 C         143.1305  144.1069  162.4951 C.3     1  UNL1        0.1834
      4 C         144.5357  143.6332  162.7202 C.3     1  UNL1        0.1130
      5 N         144.9783  142.8949  161.4918 N.3     1  UNL1       -0.2882
      6 H         145.2130  141.9318  161.7325 H       1  UNL1        0.1237
      7 O         144.1902  143.1225  157.9409 O.2     1  UNL1       -0.2734
      8 C         143.8555  142.2899  159.1428 C.2     1  UNL1        0.2401
      9 N         143.5296  140.8348  158.9799 N.am    1  UNL1       -0.2770
     10 C         143.2095  140.0941  160.2445 C.3     1  UNL1        0.0949
     11 C         142.8476  138.6484  160.4155 C.3     1  UNL1        0.0388
     12 C         142.7165  137.5866  159.3643 C.3     1  UNL1        0.0739
     13 N         142.9148  137.7079  157.8824 N.3     1  UNL1       -0.2725
     14 C         143.2932  138.9212  157.0858 C.3     1  UNL1        0.0938
     15 C         143.5668  140.3128  157.5743 C.3     1  UNL1        0.1107
     16 C         142.7072  136.4496  157.0928 C.3     1  UNL1        0.0576
     17 C         141.7337  136.0054  156.0416 C.3     1  UNL1        0.0160
     18 C         142.4136  134.6700  155.9761 C.3     1  UNL1        0.0028
     19 C         143.3871  135.1140  157.0273 C.3     1  UNL1        0.0160
     20 O         142.2973  144.8889  163.4669 O.3     1  UNL1       -0.4776
     21 C         140.9466  144.3805  163.8757 C.ar    1  UNL1        0.1407
     22 C         139.7065  145.0111  163.3148 C.ar    1  UNL1        0.0370
     23 C         138.3559  144.5027  163.7236 C.ar    1  UNL1        0.0054
     24 C         138.2452  143.3637  164.6932 C.ar    1  UNL1        0.0298
     25 C         139.4852  142.7330  165.2541 C.ar    1  UNL1        0.1432
     26 F         139.3746  141.5940  166.2238 F       1  UNL1       -0.2041
     27 C         140.8359  143.2415  164.8453 C.ar    1  UNL1        0.0665
@<TRIPOS>BOND
     1     7     8    2
     2     8     1    1
     3     1     2    1
     4     2     3    1
     5     3    20    1
     6    20    21    1
     7    21    22   ar
     8    22    23   ar
     9    23    24   ar
    10    24    25   ar
    11    25    26    1
    12    25    27   ar
    13     3     4    1
    14     4     5    1
    15     8     9   am
    16     9    10    1
    17    10    11    1
    18    11    12    1
    19    12    13    1
    20    13    16    1
    21    16    17    1
    22    17    18    1
    23    18    19    1
    24    13    14    1
    25    14    15    1
    26     5     1    1
    27    15     9    1
    28    27    21   ar
    29    19    16    1
    30     5     6    1
@<TRIPOS>MOLECULE
*****
 27 30 0 0 0
SMALL
GASTEIGER

@<TRIPOS>ATOM
      1 C         141.7510  144.7358  161.9121 C.3     1  UNL1        0.1355
      2 C         141.4052  144.0561  160.6204 C.3     1  UNL1        0.0700
      3 C         140.2682  144.8060  159.9920 C.3     1  UNL1        0.1834
      4 C         139.9113  145.9491  160.8953 C.3     1  UNL1        0.1130
      5 N         140.8278  145.9056  162.0820 N.3     1  UNL1       -0.2882
      6 H         140.2823  145.7948  162.9367 H       1  UNL1        0.1237
      7 O         144.2690  144.5836  162.5337 O.2     1  UNL1       -0.2734
      8 C         142.8306  144.3187  162.8663 C.2     1  UNL1        0.2401
      9 N         142.4717  143.6367  164.1532 N.am    1  UNL1       -0.2770
     10 C         141.0061  143.4199  164.3882 C.3     1  UNL1        0.0949
     11 C         140.3327  142.7745  165.5630 C.3     1  UNL1        0.0388
     12 C         140.9585  142.1866  166.7928 C.3     1  UNL1        0.0739
     13 N         142.4123  142.0987  167.1517 N.3     1  UNL1       -0.2725
     14 C         143.5993  142.5771  166.3694 C.3     1  UNL1        0.0938
     15 C         143.6257  143.2616  165.0349 C.3     1  UNL1        0.1107
     16 C         142.7197  141.4461  168.4668 C.3     1  UNL1        0.0576
     17 C         142.4669  140.0937  169.0647 C.3     1  UNL1        0.0160
     18 C         143.1544  140.5232  170.3268 C.3     1  UNL1        0.0028
     19 C         143.4071  141.8755  169.7291 C.3     1  UNL1        0.0160
     20 O         139.6046  144.4715  158.6890 O.3     1  UNL1       -0.4776
     21 C         139.3250  143.0409  158.3352 C.ar    1  UNL1        0.1407
     22 C         139.9232  142.4441  157.0959 C.ar    1  UNL1        0.0370
     23 C         139.6437  141.0135  156.7421 C.ar    1  UNL1        0.0054
     24 C         138.7658  140.1797  157.6276 C.ar    1  UNL1        0.0298
     25 C         138.1676  140.7765  158.8669 C.ar    1  UNL1        0.1432
     26 F         137.2897  139.9427  159.7525 F       1  UNL1       -0.2041
     27 C         138.4472  142.2072  159.2207 C.ar    1  UNL1        0.0665
@<TRIPOS>BOND
     1     7     8    2
     2     8     1    1
     3     1     2    1
     4     2     3    1
     5     3    20    1
     6    20    21    1
     7    21    22   ar
     8    22    23   ar
     9    23    24   ar
    10    24    25   ar
    11    25    26    1
    12    25    27   ar
    13     3     4    1
    14     4     5    1
    15     8     9   am
    16     9    10    1
    17    10    11    1
    18    11    12    1
    19    12    13    1
    20    13    16    1
    21    16    17    1
    22    17    18    1
    23    18    19    1
    24    13    14    1
    25    14    15    1
    26     5     1    1
    27    15     9    1
    28    27    21   ar
    29    19    16    1
    30     5     6    1
@<TRIPOS>MOLECULE
*****
 27 30 0 0 0
SMALL
GASTEIGER

@<TRIPOS>ATOM
      1 C         141.8616  137.9372  162.1373 C.3     1  UNL1        0.1355
      2 C         142.5772  138.8657  163.0731 C.3     1  UNL1        0.0700
      3 C         142.3495  138.3787  164.4734 C.3     1  UNL1        0.1834
      4 C         141.4932  137.1492  164.4031 C.3     1  UNL1        0.1130
      5 N         141.1916  136.8763  162.9593 N.3     1  UNL1       -0.2882
      6 H         140.1837  136.9039  162.8050 H       1  UNL1        0.1237
      7 O         142.9394  137.4809  159.8178 O.2     1  UNL1       -0.2734
      8 C         141.8227  138.0498  160.6420 C.2     1  UNL1        0.2401
      9 N         140.6672  138.7313  159.9709 N.am    1  UNL1       -0.2770
     10 C         139.6052  139.2643  160.8864 C.3     1  UNL1        0.0949
     11 C         138.3401  139.9874  160.5302 C.3     1  UNL1        0.0388
     12 C         137.8247  140.3560  159.1707 C.3     1  UNL1        0.0739
     13 N         138.4470  140.0926  157.8315 N.3     1  UNL1       -0.2725
     14 C         139.7384  139.3955  157.5211 C.3     1  UNL1        0.0938
     15 C         140.7265  138.7897  158.4734 C.3     1  UNL1        0.1107
     16 C         137.6759  140.5923  156.6459 C.3     1  UNL1        0.0576
     17 C         137.9772  140.7849  155.1891 C.3     1  UNL1        0.0160
     18 C         136.5854  141.2991  154.9692 C.3     1  UNL1        0.0028
     19 C         136.2840  141.1066  156.4259 C.3     1  UNL1        0.0160
     20 O         142.8843  139.0103  165.7245 O.3     1  UNL1       -0.4776
     21 C         141.9455  139.4049  166.8258 C.ar    1  UNL1        0.1407
     22 C         140.5116  139.7156  166.5137 C.ar    1  UNL1        0.0370
     23 C         139.5728  140.1103  167.6149 C.ar    1  UNL1        0.0054
     24 C         140.0678  140.1943  169.0284 C.ar    1  UNL1        0.0298
     25 C         141.5017  139.8836  169.3405 C.ar    1  UNL1        0.1432
     26 F         141.9969  139.9675  170.7540 F       1  UNL1       -0.2041
     27 C         142.4405  139.4889  168.2392 C.ar    1  UNL1        0.0665
@<TRIPOS>BOND
     1     7     8    2
     2     8     1    1
     3     1     2    1
     4     2     3    1
     5     3    20    1
     6    20    21    1
     7    21    22   ar
     8    22    23   ar
     9    23    24   ar
    10    24    25   ar
    11    25    26    1
    12    25    27   ar
    13     3     4    1
    14     4     5    1
    15     8     9   am
    16     9    10    1
    17    10    11    1
    18    11    12    1
    19    12    13    1
    20    13    16    1
    21    16    17    1
    22    17    18    1
    23    18    19    1
    24    13    14    1
    25    14    15    1
    26     5     1    1
    27    15     9    1
    28    27    21   ar
    29    19    16    1
    30     5     6    1
@<TRIPOS>MOLECULE
*****
 27 30 0 0 0
SMALL
GASTEIGER

@<TRIPOS>ATOM
      1 C         142.0870  139.3234  164.4244 C.3     1  UNL1        0.1355
      2 C         141.6514  139.7184  165.8044 C.3     1  UNL1        0.0700
      3 C         142.6839  139.2263  166.7749 C.3     1  UNL1        0.1834
      4 C         143.7575  138.5273  165.9948 C.3     1  UNL1        0.1130
      5 N         143.3886  138.5873  164.5421 N.3     1  UNL1       -0.2882
      6 H         143.2866  137.6425  164.1716 H       1  UNL1        0.1237
      7 O         140.3271  138.6439  162.6381 O.2     1  UNL1       -0.2734
      8 C         141.3503  139.6137  163.1505 C.2     1  UNL1        0.2401
      9 N         141.6366  140.8739  162.3889 N.am    1  UNL1       -0.2770
     10 C         142.6764  141.7741  162.9877 C.3     1  UNL1        0.0949
     11 C         143.1817  143.0901  162.4747 C.3     1  UNL1        0.0388
     12 C         142.7721  143.8306  161.2364 C.3     1  UNL1        0.0739
     13 N         141.7561  143.4383  160.2050 N.3     1  UNL1       -0.2725
     14 C         140.8986  142.2084  160.1573 C.3     1  UNL1        0.0938
     15 C         140.8455  141.0672  161.1293 C.3     1  UNL1        0.1107
     16 C         141.5732  144.4034  159.0714 C.3     1  UNL1        0.0576
     17 C         140.5686  145.4649  158.7336 C.3     1  UNL1        0.0160
     18 C         141.3147  145.7683  157.4682 C.3     1  UNL1        0.0028
     19 C         142.3193  144.7069  157.8059 C.3     1  UNL1        0.0160
     20 O         142.6489  139.4025  168.2642 O.3     1  UNL1       -0.4776
     21 C         141.7545  140.4397  168.8759 C.ar    1  UNL1        0.1407
     22 C         142.2536  141.8411  169.0685 C.ar    1  UNL1        0.0370
     23 C         141.3593  142.8783  169.6801 C.ar    1  UNL1        0.0054
     24 C         139.9658  142.5142  170.0994 C.ar    1  UNL1        0.0298
     25 C         139.4667  141.1129  169.9068 C.ar    1  UNL1        0.1432
     26 F         138.0732  140.7487  170.3260 F       1  UNL1       -0.2041
     27 C         140.3611  140.0756  169.2951 C.ar    1  UNL1        0.0665
@<TRIPOS>BOND
     1     7     8    2
     2     8     1    1
     3     1     2    1
     4     2     3    1
     5     3    20    1
     6    20    21    1
     7    21    22   ar
     8    22    23   ar
     9    23    24   ar
    10    24    25   ar
    11    25    26    1
    12    25    27   ar
    13     3     4    1
    14     4     5    1
    15     8     9   am
    16     9    10    1
    17    10    11    1
    18    11    12    1
    19    12    13    1
    20    13    16    1
    21    16    17    1
    22    17    18    1
    23    18    19    1
    24    13    14    1
    25    14    15    1
    26     5     1    1
    27    15     9    1
    28    27    21   ar
    29    19    16    1
    30     5     6    1
