@<TRIPOS>MOLECULE
*****
 27 30 0 0 0
SMALL
GASTEIGER

@<TRIPOS>ATOM
      1 N         141.0927  144.9341  159.9790 N.am    1  UNL1       -0.2743
      2 C         141.9891  143.7495  160.1873 C.3     1  UNL1        0.0984
      3 C         141.9493  142.9979  161.4848 C.3     1  UNL1        0.0480
      4 C         141.0132  143.4308  162.5740 C.ar    1  UNL1       -0.0161
      5 C         140.9734  142.6792  163.8715 C.ar    1  UNL1       -0.0041
      6 C         140.0373  143.1122  164.9606 C.ar    1  UNL1       -0.0003
      7 C         139.1410  144.2967  164.7523 C.ar    1  UNL1        0.0001
      8 C         139.1808  145.0483  163.4548 C.ar    1  UNL1        0.0042
      9 C         140.1169  144.6154  162.3657 C.ar    1  UNL1        0.0497
     10 C         140.1567  145.3670  161.0681 C.2     1  UNL1        0.2488
     11 O         139.2603  146.5516  160.8598 O.2     1  UNL1       -0.2699
     12 C         139.9976  142.3605  166.2581 C.ar    1  UNL1        0.0000
     13 C         139.5755  140.9213  166.2785 C.ar    1  UNL1        0.0007
     14 C         139.5357  140.1697  167.5760 C.ar    1  UNL1        0.0103
     15 C         139.9180  140.8573  168.8531 C.ar    1  UNL1        0.0684
     16 C         140.3400  142.2965  168.8328 C.ar    1  UNL1        0.0103
     17 C         140.3798  143.0482  167.5352 C.ar    1  UNL1        0.0007
     18 C         139.8781  140.1057  170.1506 C.1     1  UNL1        0.1004
     19 N         139.8383  139.3540  171.4480 N.1     1  UNL1       -0.1908
     20 C         141.1325  145.6857  158.6814 C.3     1  UNL1        0.1110
     21 C         140.1413  145.3697  157.6010 C.3     1  UNL1        0.0938
     22 C         142.0518  145.2391  154.9586 C.3     1  UNL1        0.0173
     23 C         140.9174  146.1951  155.1800 C.3     1  UNL1        0.0576
     24 C         140.4620  147.2590  154.2256 C.3     1  UNL1        0.0174
     25 C         139.3023  147.9766  154.8504 C.3     1  UNL1        0.0187
     26 C         139.0411  147.3561  156.1909 C.3     1  UNL1        0.0721
     27 N         140.0392  146.2552  156.3946 N.3     1  UNL1       -0.2725
@<TRIPOS>BOND
     1    23    22    1
     2    23    24    1
     3    24    25    1
     4    25    26    1
     5    26    27    1
     6    27    21    1
     7    21    20    1
     8    20     1    1
     9     1     2    1
    10     2     3    1
    11     3     4    1
    12     4     5   ar
    13     5     6   ar
    14     6    12    1
    15    12    13   ar
    16    13    14   ar
    17    14    15   ar
    18    15    18    1
    19    18    19    3
    20    15    16   ar
    21    16    17   ar
    22     6     7   ar
    23     7     8   ar
    24     8     9   ar
    25     9    10    1
    26    10    11    2
    27    27    23    1
    28    10     1   am
    29     9     4   ar
    30    17    12   ar
@<TRIPOS>MOLECULE
*****
 27 30 0 0 0
SMALL
GASTEIGER

@<TRIPOS>ATOM
      1 N         139.8512  139.0374  159.6852 N.am    1  UNL1       -0.2743
      2 C         141.2124  138.8477  160.2859 C.3     1  UNL1        0.0984
      3 C         141.4463  139.1730  161.7314 C.3     1  UNL1        0.0480
      4 C         140.3188  139.6881  162.5762 C.ar    1  UNL1       -0.0161
      5 C         140.5526  140.0135  164.0216 C.ar    1  UNL1       -0.0041
      6 C         139.4252  140.5285  164.8663 C.ar    1  UNL1       -0.0003
      7 C         138.0639  140.7182  164.2655 C.ar    1  UNL1        0.0001
      8 C         137.8300  140.3928  162.8201 C.ar    1  UNL1        0.0042
      9 C         138.9575  139.8778  161.9754 C.ar    1  UNL1        0.0497
     10 C         138.7237  139.5524  160.5298 C.2     1  UNL1        0.2488
     11 O         137.3624  139.7421  159.9291 O.2     1  UNL1       -0.2699
     12 C         139.6589  140.8539  166.3119 C.ar    1  UNL1        0.0000
     13 C         139.2926  139.8593  167.3733 C.ar    1  UNL1        0.0007
     14 C         139.5263  140.1846  168.8188 C.ar    1  UNL1        0.0103
     15 C         140.1265  141.5046  169.2029 C.ar    1  UNL1        0.0684
     16 C         140.4929  142.4992  168.1415 C.ar    1  UNL1        0.0103
     17 C         140.2591  142.1738  166.6960 C.ar    1  UNL1        0.0007
     18 C         140.3603  141.8299  170.6484 C.1     1  UNL1        0.1004
     19 N         140.5940  142.1553  172.0939 N.1     1  UNL1       -0.1908
     20 C         139.6174  138.7120  158.2396 C.3     1  UNL1        0.1110
     21 C         140.7640  138.7262  157.2727 C.3     1  UNL1        0.0938
     22 C         139.5357  136.7288  155.0030 C.3     1  UNL1        0.0173
     23 C         140.8080  136.5169  155.7687 C.3     1  UNL1        0.0576
     24 C         141.7390  135.3496  155.6256 C.3     1  UNL1        0.0174
     25 C         142.8791  135.5462  156.5805 C.3     1  UNL1        0.0187
     26 C         142.6526  136.8351  157.3137 C.3     1  UNL1        0.0721
     27 N         141.3726  137.4350  156.8120 N.3     1  UNL1       -0.2725
@<TRIPOS>BOND
     1    23    22    1
     2    23    24    1
     3    24    25    1
     4    25    26    1
     5    26    27    1
     6    27    21    1
     7    21    20    1
     8    20     1    1
     9     1     2    1
    10     2     3    1
    11     3     4    1
    12     4     5   ar
    13     5     6   ar
    14     6    12    1
    15    12    13   ar
    16    13    14   ar
    17    14    15   ar
    18    15    18    1
    19    18    19    3
    20    15    16   ar
    21    16    17   ar
    22     6     7   ar
    23     7     8   ar
    24     8     9   ar
    25     9    10    1
    26    10    11    2
    27    27    23    1
    28    10     1   am
    29     9     4   ar
    30    17    12   ar
@<TRIPOS>MOLECULE
*****
 27 30 0 0 0
SMALL
GASTEIGER

@<TRIPOS>ATOM
      1 N         141.7784  138.0226  159.3515 N.am    1  UNL1       -0.2743
      2 C         143.0230  137.7615  160.1469 C.3     1  UNL1        0.0984
      3 C         143.0378  138.0227  161.6239 C.3     1  UNL1        0.0480
      4 C         141.8079  138.5449  162.3056 C.ar    1  UNL1       -0.0161
      5 C         141.8226  138.8061  163.7825 C.ar    1  UNL1       -0.0041
      6 C         140.5927  139.3283  164.4641 C.ar    1  UNL1       -0.0003
      7 C         139.3481  139.5894  163.6687 C.ar    1  UNL1        0.0001
      8 C         139.3333  139.3282  162.1917 C.ar    1  UNL1        0.0042
      9 C         140.5632  138.8060  161.5101 C.ar    1  UNL1        0.0497
     10 C         140.5485  138.5448  160.0331 C.2     1  UNL1        0.2488
     11 O         139.3038  138.8059  159.2377 O.2     1  UNL1       -0.2699
     12 C         140.6075  139.5895  165.9412 C.ar    1  UNL1        0.0000
     13 C         141.9114  139.6398  166.6809 C.ar    1  UNL1        0.0007
     14 C         141.9262  139.9009  168.1579 C.ar    1  UNL1        0.0103
     15 C         140.6370  140.1119  168.8952 C.ar    1  UNL1        0.0684
     16 C         139.3330  140.0616  168.1555 C.ar    1  UNL1        0.0103
     17 C         139.3183  139.8004  166.6784 C.ar    1  UNL1        0.0007
     18 C         140.6517  140.3731  170.3722 C.1     1  UNL1        0.1004
     19 N         140.6665  140.6342  171.8492 N.1     1  UNL1       -0.1908
     20 C         141.7636  137.7614  157.8744 C.3     1  UNL1        0.1110
     21 C         142.8997  137.0219  157.2322 C.3     1  UNL1        0.0938
     22 C         140.9709  135.8088  154.8960 C.3     1  UNL1        0.0173
     23 C         141.8603  135.0143  155.8059 C.3     1  UNL1        0.0576
     24 C         142.0191  133.5228  155.8017 C.3     1  UNL1        0.0174
     25 C         143.0039  133.1586  156.8729 C.3     1  UNL1        0.0187
     26 C         143.4536  134.4250  157.5392 C.3     1  UNL1        0.0721
     27 N         142.7468  135.5719  156.8797 N.3     1  UNL1       -0.2725
@<TRIPOS>BOND
     1    23    22    1
     2    23    24    1
     3    24    25    1
     4    25    26    1
     5    26    27    1
     6    27    21    1
     7    21    20    1
     8    20     1    1
     9     1     2    1
    10     2     3    1
    11     3     4    1
    12     4     5   ar
    13     5     6   ar
    14     6    12    1
    15    12    13   ar
    16    13    14   ar
    17    14    15   ar
    18    15    18    1
    19    18    19    3
    20    15    16   ar
    21    16    17   ar
    22     6     7   ar
    23     7     8   ar
    24     8     9   ar
    25     9    10    1
    26    10    11    2
    27    27    23    1
    28    10     1   am
    29     9     4   ar
    30    17    12   ar
@<TRIPOS>MOLECULE
*****
 27 30 0 0 0
SMALL
GASTEIGER

@<TRIPOS>ATOM
      1 N         143.8842  141.3254  159.6991 N.am    1  UNL1       -0.2743
      2 C         143.5281  142.7098  160.1537 C.3     1  UNL1        0.0984
      3 C         143.1179  142.9498  161.5764 C.3     1  UNL1        0.0480
      4 C         143.0638  141.8053  162.5446 C.ar    1  UNL1       -0.0161
      5 C         142.6537  142.0453  163.9673 C.ar    1  UNL1       -0.0041
      6 C         142.5996  140.9009  164.9355 C.ar    1  UNL1       -0.0003
      7 C         142.9557  139.5165  164.4809 C.ar    1  UNL1        0.0001
      8 C         143.3658  139.2765  163.0582 C.ar    1  UNL1        0.0042
      9 C         143.4199  140.4209  162.0901 C.ar    1  UNL1        0.0497
     10 C         143.8301  140.1810  160.6673 C.2     1  UNL1        0.2488
     11 O         144.1862  138.7966  160.2127 O.2     1  UNL1       -0.2699
     12 C         142.1894  141.1408  166.3583 C.ar    1  UNL1        0.0000
     13 C         141.2987  142.2993  166.6968 C.ar    1  UNL1        0.0007
     14 C         140.8885  142.5392  168.1195 C.ar    1  UNL1        0.0103
     15 C         141.3691  141.6208  169.2038 C.ar    1  UNL1        0.0684
     16 C         142.2599  140.4624  168.8652 C.ar    1  UNL1        0.0103
     17 C         142.6700  140.2224  167.4424 C.ar    1  UNL1        0.0007
     18 C         140.9589  141.8607  170.6265 C.1     1  UNL1        0.1004
     19 N         140.5487  142.1007  172.0492 N.1     1  UNL1       -0.1908
     20 C         144.2943  141.0855  158.2763 C.3     1  UNL1        0.1110
     21 C         144.7257  142.2359  157.4159 C.3     1  UNL1        0.0938
     22 C         147.7277  143.3184  158.0984 C.3     1  UNL1        0.0173
     23 C         147.3123  142.6001  156.8488 C.3     1  UNL1        0.0576
     24 C         148.2039  142.2533  155.6936 C.3     1  UNL1        0.0174
     25 C         147.3750  141.5413  154.6658 C.3     1  UNL1        0.0187
     26 C         145.9712  141.4482  155.1860 C.3     1  UNL1        0.0721
     27 N         145.9324  142.1025  156.5351 N.3     1  UNL1       -0.2725
@<TRIPOS>BOND
     1    23    22    1
     2    23    24    1
     3    24    25    1
     4    25    26    1
     5    26    27    1
     6    27    21    1
     7    21    20    1
     8    20     1    1
     9     1     2    1
    10     2     3    1
    11     3     4    1
    12     4     5   ar
    13     5     6   ar
    14     6    12    1
    15    12    13   ar
    16    13    14   ar
    17    14    15   ar
    18    15    18    1
    19    18    19    3
    20    15    16   ar
    21    16    17   ar
    22     6     7   ar
    23     7     8   ar
    24     8     9   ar
    25     9    10    1
    26    10    11    2
    27    27    23    1
    28    10     1   am
    29     9     4   ar
    30    17    12   ar
@<TRIPOS>MOLECULE
*****
 27 30 0 0 0
SMALL
GASTEIGER

@<TRIPOS>ATOM
      1 N         139.8208  138.8355  159.5774 N.am    1  UNL1       -0.2743
      2 C         141.1574  138.5686  160.2036 C.3     1  UNL1        0.0984
      3 C         141.3912  138.9079  161.6458 C.3     1  UNL1        0.0480
      4 C         140.2882  139.5142  162.4620 C.ar    1  UNL1       -0.0161
      5 C         140.5219  139.8535  163.9043 C.ar    1  UNL1       -0.0041
      6 C         139.4190  140.4597  164.7203 C.ar    1  UNL1       -0.0003
      7 C         138.0824  140.7266  164.0942 C.ar    1  UNL1        0.0001
      8 C         137.8486  140.3872  162.6519 C.ar    1  UNL1        0.0042
      9 C         138.9515  139.7810  161.8358 C.ar    1  UNL1        0.0497
     10 C         138.7178  139.4417  160.3935 C.2     1  UNL1        0.2488
     11 O         137.3812  139.7085  159.7673 O.2     1  UNL1       -0.2699
     12 C         139.6527  140.7990  166.1627 C.ar    1  UNL1        0.0000
     13 C         139.2893  139.8135  167.2335 C.ar    1  UNL1        0.0007
     14 C         139.5229  140.1528  168.6757 C.ar    1  UNL1        0.0103
     15 C         140.1201  141.4777  169.0473 C.ar    1  UNL1        0.0684
     16 C         140.4836  142.4633  167.9766 C.ar    1  UNL1        0.0103
     17 C         140.2499  142.1239  166.5342 C.ar    1  UNL1        0.0007
     18 C         140.3538  141.8170  170.4896 C.1     1  UNL1        0.1004
     19 N         140.5875  142.1563  171.9319 N.1     1  UNL1       -0.1908
     20 C         139.5871  138.4961  158.1350 C.3     1  UNL1        0.1110
     21 C         139.5408  139.5864  157.1060 C.3     1  UNL1        0.0938
     22 C         138.6621  137.7372  154.5648 C.3     1  UNL1        0.0173
     23 C         137.9096  138.9212  155.0956 C.3     1  UNL1        0.0576
     24 C         136.6210  139.4631  154.5516 C.3     1  UNL1        0.0174
     25 C         136.2286  140.6480  155.3835 C.3     1  UNL1        0.0187
     26 C         137.2746  140.8384  156.4416 C.3     1  UNL1        0.0721
     27 N         138.3135  139.7712  156.2637 N.3     1  UNL1       -0.2725
@<TRIPOS>BOND
     1    23    22    1
     2    23    24    1
     3    24    25    1
     4    25    26    1
     5    26    27    1
     6    27    21    1
     7    21    20    1
     8    20     1    1
     9     1     2    1
    10     2     3    1
    11     3     4    1
    12     4     5   ar
    13     5     6   ar
    14     6    12    1
    15    12    13   ar
    16    13    14   ar
    17    14    15   ar
    18    15    18    1
    19    18    19    3
    20    15    16   ar
    21    16    17   ar
    22     6     7   ar
    23     7     8   ar
    24     8     9   ar
    25     9    10    1
    26    10    11    2
    27    27    23    1
    28    10     1   am
    29     9     4   ar
    30    17    12   ar
@<TRIPOS>MOLECULE
*****
 27 30 0 0 0
SMALL
GASTEIGER

@<TRIPOS>ATOM
      1 N         142.0178  138.3873  158.2966 N.am    1  UNL1       -0.2743
      2 C         143.1683  138.6996  159.2070 C.3     1  UNL1        0.0984
      3 C         142.9264  138.9305  160.6692 C.3     1  UNL1        0.0480
      4 C         141.5339  138.8492  161.2211 C.ar    1  UNL1       -0.0161
      5 C         141.2920  139.0802  162.6833 C.ar    1  UNL1       -0.0041
      6 C         139.8996  138.9989  163.2351 C.ar    1  UNL1       -0.0003
      7 C         138.7491  138.6866  162.3247 C.ar    1  UNL1        0.0001
      8 C         138.9910  138.4557  160.8625 C.ar    1  UNL1        0.0042
      9 C         140.3834  138.5370  160.3107 C.ar    1  UNL1        0.0497
     10 C         140.6254  138.3060  158.8484 C.2     1  UNL1        0.2488
     11 O         139.4749  137.9938  157.9380 O.2     1  UNL1       -0.2699
     12 C         139.6576  139.2298  164.6974 C.ar    1  UNL1        0.0000
     13 C         138.3967  138.7292  165.3371 C.ar    1  UNL1        0.0007
     14 C         138.1547  138.9601  166.7993 C.ar    1  UNL1        0.0103
     15 C         139.1737  139.6917  167.6218 C.ar    1  UNL1        0.0684
     16 C         140.4347  140.1923  166.9821 C.ar    1  UNL1        0.0103
     17 C         140.6766  139.9614  165.5198 C.ar    1  UNL1        0.0007
     18 C         138.9317  139.9226  169.0840 C.1     1  UNL1        0.1004
     19 N         138.6897  140.1535  170.5462 N.1     1  UNL1       -0.1908
     20 C         142.2597  138.1564  156.8343 C.3     1  UNL1        0.1110
     21 C         143.1655  137.0463  156.3901 C.3     1  UNL1        0.0938
     22 C         143.6026  134.1066  157.7380 C.3     1  UNL1        0.0173
     23 C         142.7839  134.4037  156.5167 C.3     1  UNL1        0.0576
     24 C         142.0224  133.4017  155.7006 C.3     1  UNL1        0.0174
     25 C         141.3508  134.1337  154.5767 C.3     1  UNL1        0.0187
     26 C         141.6973  135.5881  154.6982 C.3     1  UNL1        0.0721
     27 N         142.5830  135.7550  155.8972 N.3     1  UNL1       -0.2725
@<TRIPOS>BOND
     1    23    22    1
     2    23    24    1
     3    24    25    1
     4    25    26    1
     5    26    27    1
     6    27    21    1
     7    21    20    1
     8    20     1    1
     9     1     2    1
    10     2     3    1
    11     3     4    1
    12     4     5   ar
    13     5     6   ar
    14     6    12    1
    15    12    13   ar
    16    13    14   ar
    17    14    15   ar
    18    15    18    1
    19    18    19    3
    20    15    16   ar
    21    16    17   ar
    22     6     7   ar
    23     7     8   ar
    24     8     9   ar
    25     9    10    1
    26    10    11    2
    27    27    23    1
    28    10     1   am
    29     9     4   ar
    30    17    12   ar
@<TRIPOS>MOLECULE
*****
 27 30 0 0 0
SMALL
GASTEIGER

@<TRIPOS>ATOM
      1 N         141.5602  138.4973  159.4724 N.am    1  UNL1       -0.2743
      2 C         140.1543  138.4474  159.9931 C.3     1  UNL1        0.0984
      3 C         139.8848  138.6874  161.4490 C.3     1  UNL1        0.0480
      4 C         141.0212  138.9773  162.3843 C.ar    1  UNL1       -0.0161
      5 C         140.7516  139.2173  163.8403 C.ar    1  UNL1       -0.0041
      6 C         141.8880  139.5072  164.7755 C.ar    1  UNL1       -0.0003
      7 C         143.2938  139.5570  164.2548 C.ar    1  UNL1        0.0001
      8 C         143.5633  139.3170  162.7989 C.ar    1  UNL1        0.0042
      9 C         142.4270  139.0272  161.8637 C.ar    1  UNL1        0.0497
     10 C         142.6965  138.7872  160.4077 C.2     1  UNL1        0.2488
     11 O         144.1024  138.8370  159.8870 O.2     1  UNL1       -0.2699
     12 C         141.6185  139.7472  166.2315 C.ar    1  UNL1        0.0000
     13 C         142.7601  139.8419  167.1998 C.ar    1  UNL1        0.0007
     14 C         142.4907  140.0819  168.6558 C.ar    1  UNL1        0.0103
     15 C         141.0796  140.2272  169.1434 C.ar    1  UNL1        0.0684
     16 C         139.9379  140.1326  168.1750 C.ar    1  UNL1        0.0103
     17 C         140.2074  139.8925  166.7190 C.ar    1  UNL1        0.0007
     18 C         140.8101  140.4672  170.5993 C.1     1  UNL1        0.1004
     19 N         140.5407  140.7072  172.0552 N.1     1  UNL1       -0.1908
     20 C         141.8297  138.2573  158.0164 C.3     1  UNL1        0.1110
     21 C         142.7204  137.1264  157.5951 C.3     1  UNL1        0.0938
     22 C         143.6879  134.0135  157.4418 C.3     1  UNL1        0.0173
     23 C         142.6602  134.6617  156.5623 C.3     1  UNL1        0.0576
     24 C         141.8967  133.9928  155.4579 C.3     1  UNL1        0.0174
     25 C         140.9801  135.0103  154.8458 C.3     1  UNL1        0.0187
     26 C         141.1772  136.3080  155.5719 C.3     1  UNL1        0.0721
     27 N         142.2155  136.0925  156.6327 N.3     1  UNL1       -0.2725
@<TRIPOS>BOND
     1    23    22    1
     2    23    24    1
     3    24    25    1
     4    25    26    1
     5    26    27    1
     6    27    21    1
     7    21    20    1
     8    20     1    1
     9     1     2    1
    10     2     3    1
    11     3     4    1
    12     4     5   ar
    13     5     6   ar
    14     6    12    1
    15    12    13   ar
    16    13    14   ar
    17    14    15   ar
    18    15    18    1
    19    18    19    3
    20    15    16   ar
    21    16    17   ar
    22     6     7   ar
    23     7     8   ar
    24     8     9   ar
    25     9    10    1
    26    10    11    2
    27    27    23    1
    28    10     1   am
    29     9     4   ar
    30    17    12   ar
@<TRIPOS>MOLECULE
*****
 27 30 0 0 0
SMALL
GASTEIGER

@<TRIPOS>ATOM
      1 N         138.6928  141.0583  159.4081 N.am    1  UNL1       -0.2743
      2 C         138.5073  142.4485  159.9400 C.3     1  UNL1        0.0984
      3 C         138.6917  142.7226  161.4031 C.3     1  UNL1        0.0480
      4 C         139.0616  141.6065  162.3345 C.ar    1  UNL1       -0.0161
      5 C         139.2460  141.8806  163.7976 C.ar    1  UNL1       -0.0041
      6 C         139.6159  140.7644  164.7289 C.ar    1  UNL1       -0.0003
      7 C         139.8014  139.3742  164.1971 C.ar    1  UNL1        0.0001
      8 C         139.6170  139.1001  162.7340 C.ar    1  UNL1        0.0042
      9 C         139.2471  140.2162  161.8027 C.ar    1  UNL1        0.0497
     10 C         139.0627  139.9422  160.3394 C.2     1  UNL1        0.2488
     11 O         139.2482  138.5519  159.8076 O.2     1  UNL1       -0.2699
     12 C         139.8003  141.0385  166.1922 C.ar    1  UNL1        0.0000
     13 C         140.3566  142.3562  166.6441 C.ar    1  UNL1        0.0007
     14 C         140.5410  142.6303  168.1072 C.ar    1  UNL1        0.0103
     15 C         140.1692  141.5867  169.1185 C.ar    1  UNL1        0.0684
     16 C         139.6129  140.2690  168.6666 C.ar    1  UNL1        0.0103
     17 C         139.4285  139.9949  167.2034 C.ar    1  UNL1        0.0007
     18 C         140.3536  141.8608  170.5817 C.1     1  UNL1        0.1004
     19 N         140.5380  142.1349  172.0448 N.1     1  UNL1       -0.1908
     20 C         138.5084  140.7842  157.9449 C.3     1  UNL1        0.1110
     21 C         137.1468  140.8987  157.3262 C.3     1  UNL1        0.0938
     22 C         134.2405  140.7154  155.8533 C.3     1  UNL1        0.0173
     23 C         135.5343  140.1742  155.3212 C.3     1  UNL1        0.0576
     24 C         135.7194  139.4537  154.0186 C.3     1  UNL1        0.0174
     25 C         137.1697  139.0927  153.8907 C.3     1  UNL1        0.0187
     26 C         137.8809  139.5901  155.1141 C.3     1  UNL1        0.0721
     27 N         136.8702  140.2585  155.9982 N.3     1  UNL1       -0.2725
@<TRIPOS>BOND
     1    23    22    1
     2    23    24    1
     3    24    25    1
     4    25    26    1
     5    26    27    1
     6    27    21    1
     7    21    20    1
     8    20     1    1
     9     1     2    1
    10     2     3    1
    11     3     4    1
    12     4     5   ar
    13     5     6   ar
    14     6    12    1
    15    12    13   ar
    16    13    14   ar
    17    14    15   ar
    18    15    18    1
    19    18    19    3
    20    15    16   ar
    21    16    17   ar
    22     6     7   ar
    23     7     8   ar
    24     8     9   ar
    25     9    10    1
    26    10    11    2
    27    27    23    1
    28    10     1   am
    29     9     4   ar
    30    17    12   ar
@<TRIPOS>MOLECULE
*****
 27 30 0 0 0
SMALL
GASTEIGER

@<TRIPOS>ATOM
      1 N         143.1441  140.3073  159.7500 N.am    1  UNL1       -0.2743
      2 C         142.2526  141.4824  160.0226 C.3     1  UNL1        0.0984
      3 C         141.8607  141.8155  161.4316 C.3     1  UNL1        0.0480
      4 C         142.3603  140.9736  162.5681 C.ar    1  UNL1       -0.0161
      5 C         141.9684  141.3067  163.9771 C.ar    1  UNL1       -0.0041
      6 C         142.4680  140.4648  165.1135 C.ar    1  UNL1       -0.0003
      7 C         143.3596  139.2897  164.8409 C.ar    1  UNL1        0.0001
      8 C         143.7515  138.9566  163.4319 C.ar    1  UNL1        0.0042
      9 C         143.2519  139.7985  162.2955 C.ar    1  UNL1        0.0497
     10 C         143.6438  139.4654  160.8864 C.2     1  UNL1        0.2488
     11 O         144.5353  138.2903  160.6138 O.2     1  UNL1       -0.2699
     12 C         142.0761  140.7979  166.5226 C.ar    1  UNL1        0.0000
     13 C         141.2021  141.9857  166.7971 C.ar    1  UNL1        0.0007
     14 C         140.8102  142.3188  168.2061 C.ar    1  UNL1        0.0103
     15 C         141.2923  141.4642  169.3407 C.ar    1  UNL1        0.0684
     16 C         142.1664  140.2765  169.0662 C.ar    1  UNL1        0.0103
     17 C         142.5583  139.9433  167.6571 C.ar    1  UNL1        0.0007
     18 C         140.9004  141.7974  170.7498 C.1     1  UNL1        0.1004
     19 N         140.5085  142.1305  172.1588 N.1     1  UNL1       -0.1908
     20 C         143.5360  139.9742  158.3409 C.3     1  UNL1        0.1110
     21 C         142.6200  139.1542  157.4815 C.3     1  UNL1        0.0938
     22 C         144.5466  138.8141  154.8696 C.3     1  UNL1        0.0173
     23 C         143.9835  137.6997  155.7010 C.3     1  UNL1        0.0576
     24 C         144.2072  136.2334  155.4778 C.3     1  UNL1        0.0174
     25 C         143.4599  135.4835  156.5404 C.3     1  UNL1        0.0187
     26 C         142.7744  136.4864  157.4204 C.3     1  UNL1        0.0721
     27 N         143.0980  137.8561  156.9016 N.3     1  UNL1       -0.2725
@<TRIPOS>BOND
     1    23    22    1
     2    23    24    1
     3    24    25    1
     4    25    26    1
     5    26    27    1
     6    27    21    1
     7    21    20    1
     8    20     1    1
     9     1     2    1
    10     2     3    1
    11     3     4    1
    12     4     5   ar
    13     5     6   ar
    14     6    12    1
    15    12    13   ar
    16    13    14   ar
    17    14    15   ar
    18    15    18    1
    19    18    19    3
    20    15    16   ar
    21    16    17   ar
    22     6     7   ar
    23     7     8   ar
    24     8     9   ar
    25     9    10    1
    26    10    11    2
    27    27    23    1
    28    10     1   am
    29     9     4   ar
    30    17    12   ar
