@<TRIPOS>MOLECULE
*****
 32 35 0 0 0
SMALL
GASTEIGER

@<TRIPOS>ATOM
      1 C         142.2678  140.2013  164.2454 C.2     1  UNL1        0.1397
      2 C         142.7327  140.5040  162.8518 C.2     1  UNL1        0.1355
      3 N         142.2564  141.7440  162.1549 N.pl3   1  UNL1       -0.1998
      4 C         141.3151  142.6812  162.8517 C.2     1  UNL1        0.3442
      5 N         140.8503  142.3786  164.2453 N.2     1  UNL1       -0.0580
      6 C         141.3266  141.1386  164.9422 C.3     1  UNL1        0.2695
      7 H         142.5615  141.9426  161.2402 H       1  UNL1        0.2983
      8 C         140.8617  140.8360  166.3359 C.ar    1  UNL1        0.0415
      9 C         139.5876  140.0745  166.5527 C.ar    1  UNL1        0.0034
     10 C         139.1227  139.7719  167.9463 C.ar    1  UNL1        0.0295
     11 C         139.9318  140.2306  169.1232 C.ar    1  UNL1        0.1410
     12 F         139.4669  139.9280  170.5168 F       1  UNL1       -0.2041
     13 C         141.2059  140.9921  168.9064 C.ar    1  UNL1        0.0408
     14 C         141.6708  141.2947  167.5127 C.ar    1  UNL1        0.0603
     15 CL        142.9449  142.0561  167.2958 Cl      1  UNL1       -0.0824
     16 C         140.8388  143.9212  162.1549 C.ar    1  UNL1        0.1931
     17 N         140.9595  144.2097  160.6879 N.ar    1  UNL1       -0.2297
     18 C         140.3534  145.5572  160.4290 C.ar    1  UNL1        0.1067
     19 C         139.8580  146.1014  161.7360 C.ar    1  UNL1        0.0577
     20 S         140.1580  145.0903  162.8027 S.2     1  UNL1       -0.0586
     21 C         142.7442  138.9614  164.9423 C.2     1  UNL1        0.3447
     22 O         144.1024  138.9333  165.5782 O.2     1  UNL1       -0.2450
     23 O         141.8624  137.7495  165.0032 O.3     1  UNL1       -0.4455
     24 C         139.6550  137.6440  163.6370 C.3     1  UNL1        0.0513
     25 C         141.1095  137.3077  163.7833 C.3     1  UNL1        0.2089
     26 C         143.6740  139.5667  162.1549 C.3     1  UNL1        0.1405
     27 N         143.4938  139.2704  160.6956 N.3     1  UNL1       -0.2617
     28 C         142.9018  137.9617  160.2635 C.3     1  UNL1        0.1050
     29 C         142.7216  137.6655  158.8041 C.3     1  UNL1        0.1595
     30 O         143.1335  138.6780  157.7768 O.3     1  UNL1       -0.3508
     31 C         143.7256  139.9867  158.2089 C.3     1  UNL1        0.1595
     32 C         143.9057  140.2829  159.6683 C.3     1  UNL1        0.1050
@<TRIPOS>BOND
     1    24    25    1
     2    25    23    1
     3    23    21    1
     4    21    22    2
     5    21     1    1
     6     1     2    2
     7     2    26    1
     8    26    27    1
     9    27    28    1
    10    28    29    1
    11    29    30    1
    12    30    31    1
    13    31    32    1
    14     2     3    1
    15     3     4    1
    16     4    16    1
    17    16    17   ar
    18    17    18   ar
    19    18    19   ar
    20    19    20   ar
    21     4     5    2
    22     5     6    1
    23     6     8    1
    24     8     9   ar
    25     9    10   ar
    26    10    11   ar
    27    11    12    1
    28    11    13   ar
    29    13    14   ar
    30    14    15    1
    31     6     1    1
    32    14     8   ar
    33    32    27    1
    34    20    16   ar
    35     3     7    1
@<TRIPOS>MOLECULE
*****
 32 35 0 0 0
SMALL
GASTEIGER

@<TRIPOS>ATOM
      1 C         142.1411  141.7143  163.7100 C.2     1  UNL1        0.1397
      2 C         141.9186  142.6506  164.8606 C.2     1  UNL1        0.1355
      3 N         141.8393  142.1144  166.2593 N.pl3   1  UNL1       -0.1998
      4 C         141.9825  140.6420  166.5073 C.2     1  UNL1        0.3442
      5 N         142.2049  139.7058  165.3567 N.2     1  UNL1       -0.0580
      6 C         142.2842  140.2420  163.9580 C.3     1  UNL1        0.2695
      7 H         141.6934  142.7289  167.0145 H       1  UNL1        0.2983
      8 C         142.5066  139.3057  162.8074 C.ar    1  UNL1        0.0415
      9 C         143.8992  138.8865  162.4399 C.ar    1  UNL1        0.0034
     10 C         144.1216  137.9502  161.2893 C.ar    1  UNL1        0.0295
     11 C         142.9515  137.4331  160.5061 C.ar    1  UNL1        0.1410
     12 F         143.1739  136.4969  159.3555 F       1  UNL1       -0.2041
     13 C         141.5589  137.8523  160.8736 C.ar    1  UNL1        0.0408
     14 C         141.3365  138.7886  162.0242 C.ar    1  UNL1        0.0603
     15 CL        139.9439  139.2077  162.3916 Cl      1  UNL1       -0.0824
     16 C         141.9032  140.1058  167.9060 C.ar    1  UNL1        0.1931
     17 N         142.9208  139.2287  168.5730 N.ar    1  UNL1       -0.2297
     18 C         142.4389  138.9334  169.9625 C.ar    1  UNL1        0.1067
     19 C         141.1233  139.6281  170.1542 C.ar    1  UNL1        0.0577
     20 S         140.7923  140.3527  168.8832 S.2     1  UNL1       -0.0586
     21 C         142.2204  142.2505  162.3113 C.2     1  UNL1        0.3447
     22 O         140.9922  142.2860  161.4510 O.2     1  UNL1       -0.2450
     23 O         143.5278  142.7512  161.7731 O.3     1  UNL1       -0.4455
     24 C         145.6289  141.9020  163.0437 C.3     1  UNL1        0.0513
     25 C         144.6739  143.0084  162.7060 C.3     1  UNL1        0.2089
     26 C         141.7755  144.1230  164.6126 C.3     1  UNL1        0.1405
     27 N         140.6532  144.6342  163.7587 N.3     1  UNL1       -0.2617
     28 C         140.9240  145.6629  162.7012 C.3     1  UNL1        0.1050
     29 C         139.8016  146.1740  161.8473 C.3     1  UNL1        0.1595
     30 O         138.4086  145.6565  162.0510 O.3     1  UNL1       -0.3508
     31 C         138.1378  144.6278  163.1086 C.3     1  UNL1        0.1595
     32 C         139.2601  144.1166  163.9624 C.3     1  UNL1        0.1050
@<TRIPOS>BOND
     1    24    25    1
     2    25    23    1
     3    23    21    1
     4    21    22    2
     5    21     1    1
     6     1     2    2
     7     2    26    1
     8    26    27    1
     9    27    28    1
    10    28    29    1
    11    29    30    1
    12    30    31    1
    13    31    32    1
    14     2     3    1
    15     3     4    1
    16     4    16    1
    17    16    17   ar
    18    17    18   ar
    19    18    19   ar
    20    19    20   ar
    21     4     5    2
    22     5     6    1
    23     6     8    1
    24     8     9   ar
    25     9    10   ar
    26    10    11   ar
    27    11    12    1
    28    11    13   ar
    29    13    14   ar
    30    14    15    1
    31     6     1    1
    32    14     8   ar
    33    32    27    1
    34    20    16   ar
    35     3     7    1
@<TRIPOS>MOLECULE
*****
 32 35 0 0 0
SMALL
GASTEIGER

@<TRIPOS>ATOM
      1 C         140.7805  140.3679  164.6181 C.2     1  UNL1        0.1397
      2 C         140.4518  140.2996  163.1562 C.2     1  UNL1        0.1355
      3 N         140.2571  141.5630  162.3713 N.pl3   1  UNL1       -0.1998
      4 C         140.3912  142.8947  163.0484 C.2     1  UNL1        0.3442
      5 N         140.7199  142.9630  164.5103 N.2     1  UNL1       -0.0580
      6 C         140.9146  141.6997  165.2951 C.3     1  UNL1        0.2695
      7 H         140.0414  141.5181  161.4118 H       1  UNL1        0.2983
      8 C         141.2433  141.7681  166.7571 C.ar    1  UNL1        0.0415
      9 C         140.1884  141.4606  167.7782 C.ar    1  UNL1        0.0034
     10 C         140.5170  141.5290  169.2401 C.ar    1  UNL1        0.0295
     11 C         141.9007  141.9049  169.6810 C.ar    1  UNL1        0.1410
     12 F         142.2294  141.9733  171.1430 F       1  UNL1       -0.2041
     13 C         142.9556  142.2124  168.6600 C.ar    1  UNL1        0.0408
     14 C         142.6269  142.1440  167.1980 C.ar    1  UNL1        0.0603
     15 CL        143.6818  142.4514  166.1769 Cl      1  UNL1       -0.0824
     16 C         140.1965  144.1581  162.2635 C.ar    1  UNL1        0.1931
     17 N         139.5438  145.4135  162.7613 N.ar    1  UNL1       -0.2297
     18 C         139.5643  146.4192  161.6485 C.ar    1  UNL1        0.1067
     19 C         140.2297  145.7853  160.4630 C.ar    1  UNL1        0.0577
     20 S         140.6204  144.3878  160.8432 S.2     1  UNL1       -0.0586
     21 C         140.9752  139.1045  165.4029 C.2     1  UNL1        0.3447
     22 O         142.3462  138.7163  165.8713 O.2     1  UNL1       -0.2450
     23 O         139.7988  138.2294  165.7194 O.3     1  UNL1       -0.4455
     24 C         137.6261  138.5260  167.1128 C.3     1  UNL1        0.0513
     25 C         138.4373  138.8356  165.8896 C.3     1  UNL1        0.2089
     26 C         140.3177  138.9678  162.4790 C.3     1  UNL1        0.1405
     27 N         141.2827  138.5745  161.4001 N.3     1  UNL1       -0.2617
     28 C         140.8821  138.6848  159.9588 C.3     1  UNL1        0.1050
     29 C         141.8471  138.2915  158.8799 C.3     1  UNL1        0.1595
     30 O         143.2127  137.7878  159.2423 O.3     1  UNL1       -0.3508
     31 C         143.6133  137.6774  160.6836 C.3     1  UNL1        0.1595
     32 C         142.6484  138.0707  161.7625 C.3     1  UNL1        0.1050
@<TRIPOS>BOND
     1    24    25    1
     2    25    23    1
     3    23    21    1
     4    21    22    2
     5    21     1    1
     6     1     2    2
     7     2    26    1
     8    26    27    1
     9    27    28    1
    10    28    29    1
    11    29    30    1
    12    30    31    1
    13    31    32    1
    14     2     3    1
    15     3     4    1
    16     4    16    1
    17    16    17   ar
    18    17    18   ar
    19    18    19   ar
    20    19    20   ar
    21     4     5    2
    22     5     6    1
    23     6     8    1
    24     8     9   ar
    25     9    10   ar
    26    10    11   ar
    27    11    12    1
    28    11    13   ar
    29    13    14   ar
    30    14    15    1
    31     6     1    1
    32    14     8   ar
    33    32    27    1
    34    20    16   ar
    35     3     7    1
@<TRIPOS>MOLECULE
*****
 32 35 0 0 0
SMALL
GASTEIGER

@<TRIPOS>ATOM
      1 C         142.0442  140.1238  164.1713 C.2     1  UNL1        0.1397
      2 C         142.3439  140.4116  162.7301 C.2     1  UNL1        0.1355
      3 N         141.8792  141.6957  162.1093 N.pl3   1  UNL1       -0.1998
      4 C         141.1148  142.6918  162.9298 C.2     1  UNL1        0.3442
      5 N         140.8150  142.4040  164.3710 N.2     1  UNL1       -0.0580
      6 C         141.2797  141.1199  164.9918 C.3     1  UNL1        0.2695
      7 H         142.0760  141.8846  161.1633 H       1  UNL1        0.2983
      8 C         140.9799  140.8321  166.4331 C.ar    1  UNL1        0.0415
      9 C         142.0043  141.1330  167.4868 C.ar    1  UNL1        0.0034
     10 C         141.7046  140.8452  168.9281 C.ar    1  UNL1        0.0295
     11 C         140.3804  140.2565  169.3157 C.ar    1  UNL1        0.1410
     12 F         140.0807  139.9687  170.7570 F       1  UNL1       -0.2041
     13 C         139.3561  139.9556  168.2620 C.ar    1  UNL1        0.0408
     14 C         139.6559  140.2434  166.8207 C.ar    1  UNL1        0.0603
     15 CL        138.6316  139.9425  165.7670 Cl      1  UNL1       -0.0824
     16 C         140.6501  143.9758  162.3090 C.ar    1  UNL1        0.1931
     17 N         139.8786  145.0608  163.0002 N.ar    1  UNL1       -0.2297
     18 C         139.6270  146.1559  162.0064 C.ar    1  UNL1        0.1067
     19 C         140.2430  145.7477  160.7011 C.ar    1  UNL1        0.0577
     20 S         140.8752  144.4004  160.8881 S.2     1  UNL1       -0.0586
     21 C         142.5089  138.8398  164.7921 C.2     1  UNL1        0.3447
     22 O         143.9074  138.7260  165.3222 O.2     1  UNL1       -0.2450
     23 O         141.5750  137.6695  164.8827 O.3     1  UNL1       -0.4455
     24 C         139.6411  137.5408  163.1526 C.3     1  UNL1        0.0513
     25 C         140.9854  137.0820  163.6348 C.3     1  UNL1        0.2089
     26 C         143.1084  139.4154  161.9095 C.3     1  UNL1        0.1405
     27 N         142.8208  139.2723  160.4443 N.3     1  UNL1       -0.2617
     28 C         143.7432  139.8892  159.4351 C.3     1  UNL1        0.1050
     29 C         143.4556  139.7460  157.9699 C.3     1  UNL1        0.1595
     30 O         142.2455  138.9858  157.5140 O.3     1  UNL1       -0.3508
     31 C         141.3231  138.3689  158.5232 C.3     1  UNL1        0.1595
     32 C         141.6107  138.5121  159.9883 C.3     1  UNL1        0.1050
@<TRIPOS>BOND
     1    24    25    1
     2    25    23    1
     3    23    21    1
     4    21    22    2
     5    21     1    1
     6     1     2    2
     7     2    26    1
     8    26    27    1
     9    27    28    1
    10    28    29    1
    11    29    30    1
    12    30    31    1
    13    31    32    1
    14     2     3    1
    15     3     4    1
    16     4    16    1
    17    16    17   ar
    18    17    18   ar
    19    18    19   ar
    20    19    20   ar
    21     4     5    2
    22     5     6    1
    23     6     8    1
    24     8     9   ar
    25     9    10   ar
    26    10    11   ar
    27    11    12    1
    28    11    13   ar
    29    13    14   ar
    30    14    15    1
    31     6     1    1
    32    14     8   ar
    33    32    27    1
    34    20    16   ar
    35     3     7    1
@<TRIPOS>MOLECULE
*****
 32 35 0 0 0
SMALL
GASTEIGER

@<TRIPOS>ATOM
      1 C         139.5909  139.7194  164.4676 C.2     1  UNL1        0.1397
      2 C         139.0648  140.0972  163.1146 C.2     1  UNL1        0.1355
      3 N         139.1672  141.5162  162.6395 N.pl3   1  UNL1       -0.1998
      4 C         139.7956  142.5576  163.5173 C.2     1  UNL1        0.3442
      5 N         140.3217  142.1798  164.8703 N.2     1  UNL1       -0.0580
      6 C         140.2193  140.7607  165.3454 C.3     1  UNL1        0.2695
      7 H         138.8219  141.7642  161.7515 H       1  UNL1        0.2983
      8 C         140.7454  140.3830  166.6984 C.ar    1  UNL1        0.0415
      9 C         139.8429  140.4352  167.8954 C.ar    1  UNL1        0.0034
     10 C         140.3690  140.0575  169.2484 C.ar    1  UNL1        0.0295
     11 C         141.7976  139.6276  169.4044 C.ar    1  UNL1        0.1410
     12 F         142.3236  139.2499  170.7574 F       1  UNL1       -0.2041
     13 C         142.7001  139.5754  168.2074 C.ar    1  UNL1        0.0408
     14 C         142.1740  139.9531  166.8544 C.ar    1  UNL1        0.0603
     15 CL        143.0765  139.9010  165.6574 Cl      1  UNL1       -0.0824
     16 C         139.8980  143.9766  163.0422 C.ar    1  UNL1        0.1931
     17 N         138.8897  144.6990  162.1987 N.ar    1  UNL1       -0.2297
     18 C         139.3952  146.0913  161.9624 C.ar    1  UNL1        0.1067
     19 C         140.7159  146.2295  162.6598 C.ar    1  UNL1        0.0577
     20 S         141.0267  144.9226  163.3272 S.2     1  UNL1       -0.0586
     21 C         139.4885  138.3003  164.9427 C.2     1  UNL1        0.3447
     22 O         138.2451  137.8299  165.6374 O.2     1  UNL1       -0.2450
     23 O         140.6295  137.3517  164.7231 O.3     1  UNL1       -0.4455
     24 C         142.2357  137.9227  162.7624 C.3     1  UNL1        0.0513
     25 C         141.1282  137.0874  163.3334 C.3     1  UNL1        0.2089
     26 C         138.4363  139.0558  162.2367 C.3     1  UNL1        0.1405
     27 N         138.5613  139.1572  160.7454 N.3     1  UNL1       -0.2617
     28 C         139.5891  138.3390  160.0215 C.3     1  UNL1        0.1050
     29 C         139.7141  138.4405  158.5301 C.3     1  UNL1        0.1595
     30 O         138.8113  139.3602  157.7627 O.3     1  UNL1       -0.3508
     31 C         137.7834  140.1784  158.4866 C.3     1  UNL1        0.1595
     32 C         137.6584  140.0770  159.9779 C.3     1  UNL1        0.1050
@<TRIPOS>BOND
     1    24    25    1
     2    25    23    1
     3    23    21    1
     4    21    22    2
     5    21     1    1
     6     1     2    2
     7     2    26    1
     8    26    27    1
     9    27    28    1
    10    28    29    1
    11    29    30    1
    12    30    31    1
    13    31    32    1
    14     2     3    1
    15     3     4    1
    16     4    16    1
    17    16    17   ar
    18    17    18   ar
    19    18    19   ar
    20    19    20   ar
    21     4     5    2
    22     5     6    1
    23     6     8    1
    24     8     9   ar
    25     9    10   ar
    26    10    11   ar
    27    11    12    1
    28    11    13   ar
    29    13    14   ar
    30    14    15    1
    31     6     1    1
    32    14     8   ar
    33    32    27    1
    34    20    16   ar
    35     3     7    1
@<TRIPOS>MOLECULE
*****
 32 35 0 0 0
SMALL
GASTEIGER

@<TRIPOS>ATOM
      1 C         141.7963  143.5003  160.2485 C.2     1  UNL1        0.1397
      2 C         142.6310  143.6033  159.0065 C.2     1  UNL1        0.1355
      3 N         142.1698  144.4555  157.8614 N.pl3   1  UNL1       -0.1998
      4 C         140.8738  145.2045  157.9584 C.2     1  UNL1        0.3442
      5 N         140.0392  145.1014  159.2004 N.2     1  UNL1       -0.0580
      6 C         140.5004  144.2493  160.3455 C.3     1  UNL1        0.2695
      7 H         142.7176  144.5231  157.0463 H       1  UNL1        0.2983
      8 C         139.6657  144.1462  161.5875 C.ar    1  UNL1        0.0415
      9 C         139.9193  145.0716  162.7405 C.ar    1  UNL1        0.0034
     10 C         139.0847  144.9685  163.9826 C.ar    1  UNL1        0.0295
     11 C         137.9962  143.9402  164.0716 C.ar    1  UNL1        0.1410
     12 F         137.1615  143.8372  165.3136 F       1  UNL1       -0.2041
     13 C         137.7425  143.0149  162.9186 C.ar    1  UNL1        0.0408
     14 C         138.5773  143.1179  161.6765 C.ar    1  UNL1        0.0603
     15 CL        138.3236  142.1926  160.5235 Cl      1  UNL1       -0.0824
     16 C         140.4126  146.0566  156.8134 C.ar    1  UNL1        0.1931
     17 N         139.3518  147.1154  156.8736 N.ar    1  UNL1       -0.2297
     18 C         139.2147  147.7128  155.5045 C.ar    1  UNL1        0.1067
     19 C         140.1908  147.0231  154.5981 C.ar    1  UNL1        0.0577
     20 S         140.9311  145.9996  155.4070 S.2     1  UNL1       -0.0586
     21 C         142.2576  142.6481  161.3935 C.2     1  UNL1        0.3447
     22 O         141.6095  141.3196  161.6484 O.2     1  UNL1       -0.2450
     23 O         143.3669  143.1245  162.2837 O.3     1  UNL1       -0.4455
     24 C         143.4595  145.0778  163.9943 C.3     1  UNL1        0.0513
     25 C         143.5167  144.5878  162.5777 C.3     1  UNL1        0.2089
     26 C         143.9270  142.8543  158.9095 C.3     1  UNL1        0.1405
     27 N         144.0193  141.6221  158.0591 N.3     1  UNL1       -0.2617
     28 C         143.0334  140.5070  158.2450 C.3     1  UNL1        0.1050
     29 C         143.1257  139.2747  157.3946 C.3     1  UNL1        0.1595
     30 O         144.2038  139.1577  156.3583 O.3     1  UNL1       -0.3508
     31 C         145.1896  140.2728  156.1724 C.3     1  UNL1        0.1595
     32 C         145.0974  141.5050  157.0227 C.3     1  UNL1        0.1050
@<TRIPOS>BOND
     1    24    25    1
     2    25    23    1
     3    23    21    1
     4    21    22    2
     5    21     1    1
     6     1     2    2
     7     2    26    1
     8    26    27    1
     9    27    28    1
    10    28    29    1
    11    29    30    1
    12    30    31    1
    13    31    32    1
    14     2     3    1
    15     3     4    1
    16     4    16    1
    17    16    17   ar
    18    17    18   ar
    19    18    19   ar
    20    19    20   ar
    21     4     5    2
    22     5     6    1
    23     6     8    1
    24     8     9   ar
    25     9    10   ar
    26    10    11   ar
    27    11    12    1
    28    11    13   ar
    29    13    14   ar
    30    14    15    1
    31     6     1    1
    32    14     8   ar
    33    32    27    1
    34    20    16   ar
    35     3     7    1
@<TRIPOS>MOLECULE
*****
 32 35 0 0 0
SMALL
GASTEIGER

@<TRIPOS>ATOM
      1 C         139.1828  141.5912  160.7215 C.2     1  UNL1        0.1397
      2 C         139.3192  141.0538  159.3277 C.2     1  UNL1        0.1355
      3 N         139.5214  141.9951  158.1774 N.pl3   1  UNL1       -0.1998
      4 C         139.5872  143.4737  158.4209 C.2     1  UNL1        0.3442
      5 N         139.4507  144.0110  159.8146 N.2     1  UNL1       -0.0580
      6 C         139.2486  143.0698  160.9649 C.3     1  UNL1        0.2695
      7 H         139.6109  141.6423  157.2627 H       1  UNL1        0.2983
      8 C         139.1121  143.6072  162.3587 C.ar    1  UNL1        0.0415
      9 C         137.7506  143.8069  162.9556 C.ar    1  UNL1        0.0034
     10 C         137.6141  144.3443  164.3494 C.ar    1  UNL1        0.0295
     11 C         138.8393  144.6821  165.1463 C.ar    1  UNL1        0.1410
     12 F         138.7028  145.2195  166.5400 F       1  UNL1       -0.2041
     13 C         140.2008  144.4824  164.5494 C.ar    1  UNL1        0.0408
     14 C         140.3372  143.9450  163.1556 C.ar    1  UNL1        0.0603
     15 CL        141.6988  143.7453  162.5587 Cl      1  UNL1       -0.0824
     16 C         139.7893  144.4149  157.2706 C.ar    1  UNL1        0.1931
     17 N         140.0906  145.8808  157.3733 N.ar    1  UNL1       -0.2297
     18 C         140.2132  146.4274  155.9818 C.ar    1  UNL1        0.1067
     19 C         139.9878  145.2994  155.0191 C.ar    1  UNL1        0.0577
     20 S         139.7258  144.0556  155.8157 S.2     1  UNL1       -0.0586
     21 C         138.9806  140.6499  161.8718 C.2     1  UNL1        0.3447
     22 O         137.6234  140.0679  162.1350 O.2     1  UNL1       -0.2450
     23 O         140.1356  140.2906  162.7588 O.3     1  UNL1       -0.4455
     24 C         139.3551  140.9060  165.1593 C.3     1  UNL1        0.0513
     25 C         139.8916  139.8986  164.1860 C.3     1  UNL1        0.2089
     26 C         139.2534  139.5751  159.0842 C.3     1  UNL1        0.1405
     27 N         140.5040  138.8115  158.7635 N.3     1  UNL1       -0.2617
     28 C         140.6137  138.0614  157.4692 C.3     1  UNL1        0.1050
     29 C         141.8644  137.2978  157.1485 C.3     1  UNL1        0.1595
     30 O         143.0053  137.2842  158.1222 O.3     1  UNL1       -0.3508
     31 C         142.8956  138.0342  159.4166 C.3     1  UNL1        0.1595
     32 C         141.6450  138.7979  159.7373 C.3     1  UNL1        0.1050
@<TRIPOS>BOND
     1    24    25    1
     2    25    23    1
     3    23    21    1
     4    21    22    2
     5    21     1    1
     6     1     2    2
     7     2    26    1
     8    26    27    1
     9    27    28    1
    10    28    29    1
    11    29    30    1
    12    30    31    1
    13    31    32    1
    14     2     3    1
    15     3     4    1
    16     4    16    1
    17    16    17   ar
    18    17    18   ar
    19    18    19   ar
    20    19    20   ar
    21     4     5    2
    22     5     6    1
    23     6     8    1
    24     8     9   ar
    25     9    10   ar
    26    10    11   ar
    27    11    12    1
    28    11    13   ar
    29    13    14   ar
    30    14    15    1
    31     6     1    1
    32    14     8   ar
    33    32    27    1
    34    20    16   ar
    35     3     7    1
@<TRIPOS>MOLECULE
*****
 32 35 0 0 0
SMALL
GASTEIGER

@<TRIPOS>ATOM
      1 C         140.2295  141.0144  160.9334 C.2     1  UNL1        0.1397
      2 C         140.4078  140.1775  159.7015 C.2     1  UNL1        0.1355
      3 N         139.5020  140.3758  158.5224 N.pl3   1  UNL1       -0.1998
      4 C         138.4178  141.4110  158.5753 C.2     1  UNL1        0.3442
      5 N         138.2395  142.2479  159.8073 N.2     1  UNL1       -0.0580
      6 C         139.1453  142.0496  160.9863 C.3     1  UNL1        0.2695
      7 H         139.6191  139.8265  157.7139 H       1  UNL1        0.2983
      8 C         138.9669  142.8865  162.2184 C.ar    1  UNL1        0.0415
      9 C         139.7152  144.1786  162.3621 C.ar    1  UNL1        0.0034
     10 C         139.5368  145.0155  163.5940 C.ar    1  UNL1        0.0295
     11 C         138.6101  144.5604  164.6823 C.ar    1  UNL1        0.1410
     12 F         138.4318  145.3974  165.9142 F       1  UNL1       -0.2041
     13 C         137.8618  143.2684  164.5385 C.ar    1  UNL1        0.0408
     14 C         138.0402  142.4314  163.3065 C.ar    1  UNL1        0.0603
     15 CL        137.2920  141.1393  163.1628 Cl      1  UNL1       -0.0824
     16 C         137.5120  141.6093  157.3963 C.ar    1  UNL1        0.1931
     17 N         136.4489  140.6587  156.9315 N.ar    1  UNL1       -0.2297
     18 C         135.7901  141.2549  155.7230 C.ar    1  UNL1        0.1067
     19 C         136.4460  142.5741  155.4409 C.ar    1  UNL1        0.0577
     20 S         137.5102  142.7931  156.4751 S.2     1  UNL1       -0.0586
     21 C         141.1353  140.8160  162.1125 C.2     1  UNL1        0.3447
     22 O         142.4952  141.4487  162.1283 O.2     1  UNL1       -0.2450
     23 O         140.6812  139.9851  163.2757 O.3     1  UNL1       -0.4455
     24 C         139.0870  137.9634  162.9270 C.3     1  UNL1        0.0513
     25 C         140.4726  138.5092  163.1072 C.3     1  UNL1        0.2089
     26 C         141.4921  139.1422  159.6485 C.3     1  UNL1        0.1405
     27 N         142.4355  139.1032  158.4831 N.3     1  UNL1       -0.2617
     28 C         143.4015  140.2292  158.2621 C.3     1  UNL1        0.1050
     29 C         144.3450  140.1902  157.0965 C.3     1  UNL1        0.1595
     30 O         144.3224  139.0251  156.1521 O.3     1  UNL1       -0.3508
     31 C         143.3564  137.8990  156.3731 C.3     1  UNL1        0.1595
     32 C         142.4130  137.9381  157.5385 C.3     1  UNL1        0.1050
@<TRIPOS>BOND
     1    24    25    1
     2    25    23    1
     3    23    21    1
     4    21    22    2
     5    21     1    1
     6     1     2    2
     7     2    26    1
     8    26    27    1
     9    27    28    1
    10    28    29    1
    11    29    30    1
    12    30    31    1
    13    31    32    1
    14     2     3    1
    15     3     4    1
    16     4    16    1
    17    16    17   ar
    18    17    18   ar
    19    18    19   ar
    20    19    20   ar
    21     4     5    2
    22     5     6    1
    23     6     8    1
    24     8     9   ar
    25     9    10   ar
    26    10    11   ar
    27    11    12    1
    28    11    13   ar
    29    13    14   ar
    30    14    15    1
    31     6     1    1
    32    14     8   ar
    33    32    27    1
    34    20    16   ar
    35     3     7    1
@<TRIPOS>MOLECULE
*****
 32 35 0 0 0
SMALL
GASTEIGER

@<TRIPOS>ATOM
      1 C         139.5659  142.1363  163.6877 C.2     1  UNL1        0.1397
      2 C         139.5708  142.0159  162.1925 C.2     1  UNL1        0.1355
      3 N         140.4521  141.0025  161.5246 N.pl3   1  UNL1       -0.1998
      4 C         141.3285  140.1094  162.3517 C.2     1  UNL1        0.3442
      5 N         141.3236  140.2297  163.8468 N.2     1  UNL1       -0.0580
      6 C         140.4423  141.2432  164.5148 C.3     1  UNL1        0.2695
      7 H         140.4552  140.9235  160.5432 H       1  UNL1        0.2983
      8 C         140.4375  141.3635  166.0100 C.ar    1  UNL1        0.0415
      9 C         141.2769  142.4100  166.6809 C.ar    1  UNL1        0.0034
     10 C         141.2721  142.5303  168.1760 C.ar    1  UNL1        0.0295
     11 C         140.4278  141.6042  169.0003 C.ar    1  UNL1        0.1410
     12 F         140.4230  141.7245  170.4955 F       1  UNL1       -0.2041
     13 C         139.5883  140.5577  168.3294 C.ar    1  UNL1        0.0408
     14 C         139.5932  140.4373  166.8342 C.ar    1  UNL1        0.0603
     15 CL        138.7537  139.3908  166.1633 Cl      1  UNL1       -0.0824
     16 C         142.2098  139.0959  161.6837 C.ar    1  UNL1        0.1931
     17 N         143.5401  138.6174  162.1849 N.ar    1  UNL1       -0.2297
     18 C         144.0680  137.6088  161.2082 C.ar    1  UNL1        0.1067
     19 C         143.0640  137.4639  160.1033 C.ar    1  UNL1        0.0577
     20 S         141.9155  138.3831  160.3971 S.2     1  UNL1       -0.0586
     21 C         138.6846  143.1497  164.3557 C.2     1  UNL1        0.3447
     22 O         137.2558  142.8137  164.6646 O.2     1  UNL1       -0.2450
     23 O         139.2321  144.4993  164.7147 O.3     1  UNL1       -0.4455
     24 C         141.6744  144.9867  163.9748 C.3     1  UNL1        0.0513
     25 C         140.1985  145.1854  163.7953 C.3     1  UNL1        0.2089
     26 C         138.6943  142.9091  161.3653 C.3     1  UNL1        0.1405
     27 N         139.2074  143.4779  160.0757 N.3     1  UNL1       -0.2617
     28 C         138.7768  142.8809  158.7687 C.3     1  UNL1        0.1050
     29 C         139.2900  143.4498  157.4791 C.3     1  UNL1        0.1595
     30 O         140.2338  144.6155  157.4965 O.3     1  UNL1       -0.3508
     31 C         140.6644  145.2124  158.8035 C.3     1  UNL1        0.1595
     32 C         140.1513  144.6436  160.0931 C.3     1  UNL1        0.1050
@<TRIPOS>BOND
     1    24    25    1
     2    25    23    1
     3    23    21    1
     4    21    22    2
     5    21     1    1
     6     1     2    2
     7     2    26    1
     8    26    27    1
     9    27    28    1
    10    28    29    1
    11    29    30    1
    12    30    31    1
    13    31    32    1
    14     2     3    1
    15     3     4    1
    16     4    16    1
    17    16    17   ar
    18    17    18   ar
    19    18    19   ar
    20    19    20   ar
    21     4     5    2
    22     5     6    1
    23     6     8    1
    24     8     9   ar
    25     9    10   ar
    26    10    11   ar
    27    11    12    1
    28    11    13   ar
    29    13    14   ar
    30    14    15    1
    31     6     1    1
    32    14     8   ar
    33    32    27    1
    34    20    16   ar
    35     3     7    1
