@<TRIPOS>MOLECULE
*****
 37 40 0 0 0
SMALL
GASTEIGER

@<TRIPOS>ATOM
      1 C         140.6172  143.7262  163.8498 C.ar    1  UNL1        0.0005
      2 C         139.4003  143.5208  164.7024 C.ar    1  UNL1       -0.0003
      3 C         139.5447  143.0060  166.1039 C.ar    1  UNL1       -0.0034
      4 C         140.9060  142.6967  166.6528 C.ar    1  UNL1       -0.0103
      5 C         142.1229  142.9022  165.8001 C.ar    1  UNL1        0.0537
      6 CL        143.4842  142.5929  166.3490 Cl      1  UNL1       -0.0826
      7 C         141.9784  143.4170  164.3986 C.ar    1  UNL1        0.0111
      8 C         141.0504  142.1820  168.0543 C.3     1  UNL1        0.0430
      9 C         141.0544  143.1401  169.2084 C.3     1  UNL1        0.0733
     10 N         141.1989  142.6254  170.6099 N.3     1  UNL1       -0.2972
     11 C         141.3392  141.1526  170.8573 C.3     1  UNL1        0.0689
     12 C         141.3352  140.1945  169.7031 C.3     1  UNL1        0.0218
     13 C         141.1908  140.7092  168.3016 C.3     1  UNL1        0.0293
     14 H         140.3726  142.9327  171.1231 H       1  UNL1        0.1233
     15 C         141.1868  139.7511  167.1475 C.ar    1  UNL1       -0.0159
     16 C         142.4770  139.1677  166.6525 C.ar    1  UNL1        0.0146
     17 C         142.4729  138.2096  165.4983 C.ar    1  UNL1        0.0781
     18 N         141.1787  137.8350  164.8392 N.ar    1  UNL1       -0.2922
     19 C         141.1746  136.8769  163.6850 C.3     1  UNL1        0.1336
     20 C         139.8884  138.4184  165.3341 C.ar    1  UNL1        0.2607
     21 O         138.5942  138.0437  164.6749 O.2     1  UNL1       -0.2670
     22 C         139.8925  139.3764  166.4882 C.ar    1  UNL1        0.0565
     23 C         140.5932  143.2991  161.2872 C.ar    1  UNL1       -0.0205
     24 C         140.4488  143.8138  159.8857 C.ar    1  UNL1       -0.0042
     25 C         140.1838  145.2705  159.6454 C.ar    1  UNL1       -0.0003
     26 C         140.0632  146.2125  160.8064 C.ar    1  UNL1       -0.0000
     27 C         140.2077  145.6977  162.2079 C.ar    1  UNL1       -0.0003
     28 C         140.4727  144.2410  162.4482 C.ar    1  UNL1       -0.0039
     29 C         140.8583  141.8423  161.5275 C.3     1  UNL1        0.0477
     30 C         141.9829  141.1563  160.8103 C.3     1  UNL1        0.0974
     31 C         144.2991  142.0868  161.5314 C.2     1  UNL1        0.4016
     32 O         143.9739  143.3993  160.8822 O.2     1  UNL1       -0.2264
     33 N         143.3036  140.9652  161.4954 N.am    1  UNL1       -0.2703
     34 H         143.5170  140.1037  161.9215 H       1  UNL1        0.1527
     35 O         145.6197  141.8957  162.2165 O.3     1  UNL1       -0.4347
     36 C         145.2913  140.2256  164.1794 C.3     1  UNL1        0.0513
     37 C         145.6659  141.5912  163.6845 C.3     1  UNL1        0.2102
@<TRIPOS>BOND
     1    36    37    1
     2    37    35    1
     3    35    31    1
     4    31    32    2
     5    31    33   am
     6    33    30    1
     7    30    29    1
     8    29    23    1
     9    23    24   ar
    10    24    25   ar
    11    25    26   ar
    12    26    27   ar
    13    27    28   ar
    14    28     1    1
    15     1     2   ar
    16     2     3   ar
    17     3     4   ar
    18     8     4    1
    19     8     9    1
    20     9    10    1
    21    10    11    1
    22    11    12    1
    23    12    13    1
    24    13    15    1
    25    15    16   ar
    26    16    17   ar
    27    17    18   ar
    28    18    19    1
    29    18    20   ar
    30    20    21    2
    31    20    22   ar
    32     4     5   ar
    33     5     6    1
    34     5     7   ar
    35    28    23   ar
    36     7     1   ar
    37    13     8    1
    38    22    15   ar
    39    33    34    1
    40    10    14    1
@<TRIPOS>MOLECULE
*****
 37 40 0 0 0
SMALL
GASTEIGER

@<TRIPOS>ATOM
      1 C         140.3951  142.7196  166.0056 C.ar    1  UNL1        0.0005
      2 C         141.7028  142.5186  165.2989 C.ar    1  UNL1       -0.0003
      3 C         141.8512  142.9307  163.8643 C.ar    1  UNL1       -0.0034
      4 C         140.6918  143.5437  163.1363 C.ar    1  UNL1       -0.0103
      5 C         139.3840  143.7447  163.8430 C.ar    1  UNL1        0.0537
      6 CL        138.2246  144.3577  163.1150 Cl      1  UNL1       -0.0826
      7 C         139.2357  143.3326  165.2776 C.ar    1  UNL1        0.0111
      8 C         140.8402  143.9558  161.7017 C.3     1  UNL1        0.0430
      9 C         141.4571  145.2801  161.3618 C.3     1  UNL1        0.0733
     10 N         141.6055  145.6922  159.9271 N.3     1  UNL1       -0.2972
     11 C         141.1370  144.7800  158.8324 C.3     1  UNL1        0.0689
     12 C         140.5200  143.4557  159.1724 C.3     1  UNL1        0.0218
     13 C         140.3716  143.0436  160.6070 C.3     1  UNL1        0.0293
     14 H         142.5999  145.8554  159.7690 H       1  UNL1        0.1233
     15 C         139.7547  141.7193  160.9470 C.ar    1  UNL1       -0.0159
     16 C         138.2624  141.5674  160.9565 C.ar    1  UNL1        0.0146
     17 C         137.6455  140.2430  161.2964 C.ar    1  UNL1        0.0781
     18 N         138.5209  139.0706  161.6268 N.ar    1  UNL1       -0.2922
     19 C         137.9039  137.7462  161.9668 C.3     1  UNL1        0.1336
     20 C         140.0131  139.2225  161.6173 C.ar    1  UNL1        0.2607
     21 O         140.8885  138.0500  161.9477 O.2     1  UNL1       -0.2670
     22 C         140.6300  140.5468  161.2774 C.ar    1  UNL1        0.0565
     23 C         139.8855  140.8919  167.7805 C.ar    1  UNL1       -0.0205
     24 C         139.7372  140.4799  169.2151 C.ar    1  UNL1       -0.0042
     25 C         139.9501  141.4834  170.3095 C.ar    1  UNL1       -0.0003
     26 C         140.3112  142.8989  169.9693 C.ar    1  UNL1       -0.0000
     27 C         140.4596  143.3109  168.5347 C.ar    1  UNL1       -0.0003
     28 C         140.2467  142.3075  167.4403 C.ar    1  UNL1       -0.0039
     29 C         139.6727  139.8884  166.6861 C.3     1  UNL1        0.0477
     30 C         140.7961  138.9881  166.2652 C.3     1  UNL1        0.0974
     31 C         142.9173  138.8694  164.7696 C.2     1  UNL1        0.4016
     32 O         143.7079  138.3468  165.9323 O.2     1  UNL1       -0.2264
     33 N         141.4614  139.1900  164.9360 N.am    1  UNL1       -0.2703
     34 H         140.9425  139.5330  164.1729 H       1  UNL1        0.1527
     35 O         143.5826  139.0713  163.4405 O.3     1  UNL1       -0.4347
     36 C         145.0391  141.0942  164.1727 C.3     1  UNL1        0.0513
     37 C         144.8608  139.8512  163.3523 C.3     1  UNL1        0.2102
@<TRIPOS>BOND
     1    36    37    1
     2    37    35    1
     3    35    31    1
     4    31    32    2
     5    31    33   am
     6    33    30    1
     7    30    29    1
     8    29    23    1
     9    23    24   ar
    10    24    25   ar
    11    25    26   ar
    12    26    27   ar
    13    27    28   ar
    14    28     1    1
    15     1     2   ar
    16     2     3   ar
    17     3     4   ar
    18     8     4    1
    19     8     9    1
    20     9    10    1
    21    10    11    1
    22    11    12    1
    23    12    13    1
    24    13    15    1
    25    15    16   ar
    26    16    17   ar
    27    17    18   ar
    28    18    19    1
    29    18    20   ar
    30    20    21    2
    31    20    22   ar
    32     4     5   ar
    33     5     6    1
    34     5     7   ar
    35    28    23   ar
    36     7     1   ar
    37    13     8    1
    38    22    15   ar
    39    33    34    1
    40    10    14    1
@<TRIPOS>MOLECULE
*****
 37 40 0 0 0
SMALL
GASTEIGER

@<TRIPOS>ATOM
      1 C         141.2280  141.8556  166.1666 C.ar    1  UNL1        0.0005
      2 C         140.0090  141.5886  165.3342 C.ar    1  UNL1       -0.0003
      3 C         139.7976  142.3377  164.0520 C.ar    1  UNL1       -0.0034
      4 C         140.8051  143.3538  163.6021 C.ar    1  UNL1       -0.0103
      5 C         142.0241  143.6208  164.4345 C.ar    1  UNL1        0.0537
      6 CL        143.0316  144.6369  163.9846 Cl      1  UNL1       -0.0826
      7 C         142.2355  142.8717  165.7168 C.ar    1  UNL1        0.0111
      8 C         140.5937  144.1029  162.3199 C.3     1  UNL1        0.0430
      9 C         139.8819  145.4231  162.3312 C.3     1  UNL1        0.0733
     10 N         139.6704  146.1723  161.0490 N.3     1  UNL1       -0.2972
     11 C         140.1708  145.6011  159.7554 C.3     1  UNL1        0.0689
     12 C         140.8827  144.2808  159.7441 C.3     1  UNL1        0.0218
     13 C         141.0941  143.5317  161.0263 C.3     1  UNL1        0.0293
     14 H         140.1181  147.0818  161.1620 H       1  UNL1        0.1233
     15 C         141.8059  142.2114  161.0149 C.ar    1  UNL1       -0.0159
     16 C         143.2594  142.1399  161.3787 C.ar    1  UNL1        0.0146
     17 C         143.9712  140.8195  161.3673 C.ar    1  UNL1        0.0781
     18 N         143.2296  139.5708  160.9922 N.ar    1  UNL1       -0.2922
     19 C         143.9415  138.2505  160.9808 C.3     1  UNL1        0.1336
     20 C         141.7761  139.6424  160.6285 C.ar    1  UNL1        0.2607
     21 O         141.0345  138.3936  160.2534 O.2     1  UNL1       -0.2670
     22 C         141.0643  140.9627  160.6398 C.ar    1  UNL1        0.0565
     23 C         142.2974  139.8763  167.4661 C.ar    1  UNL1       -0.0205
     24 C         142.5088  139.1272  168.7483 C.ar    1  UNL1       -0.0042
     25 C         141.8621  139.6084  170.0134 C.ar    1  UNL1       -0.0003
     26 C         141.0041  140.8386  169.9962 C.ar    1  UNL1       -0.0000
     27 C         140.7928  141.5876  168.7139 C.ar    1  UNL1       -0.0003
     28 C         141.4394  141.1065  167.4489 C.ar    1  UNL1       -0.0039
     29 C         142.9441  139.3951  166.2010 C.3     1  UNL1        0.0477
     30 C         142.3266  138.2706  165.4238 C.3     1  UNL1        0.0974
     31 C         140.3092  137.5485  163.9545 C.2     1  UNL1        0.4016
     32 O         141.2434  136.8357  163.0222 O.2     1  UNL1       -0.2264
     33 N         140.8509  138.2660  165.1554 N.am    1  UNL1       -0.2703
     34 H         140.2378  138.7339  165.7673 H       1  UNL1        0.1527
     35 O         138.8335  137.5439  163.6861 O.3     1  UNL1       -0.4347
     36 C         138.0058  139.5885  162.3132 C.3     1  UNL1        0.0513
     37 C         138.3019  138.1211  162.4077 C.3     1  UNL1        0.2102
@<TRIPOS>BOND
     1    36    37    1
     2    37    35    1
     3    35    31    1
     4    31    32    2
     5    31    33   am
     6    33    30    1
     7    30    29    1
     8    29    23    1
     9    23    24   ar
    10    24    25   ar
    11    25    26   ar
    12    26    27   ar
    13    27    28   ar
    14    28     1    1
    15     1     2   ar
    16     2     3   ar
    17     3     4   ar
    18     8     4    1
    19     8     9    1
    20     9    10    1
    21    10    11    1
    22    11    12    1
    23    12    13    1
    24    13    15    1
    25    15    16   ar
    26    16    17   ar
    27    17    18   ar
    28    18    19    1
    29    18    20   ar
    30    20    21    2
    31    20    22   ar
    32     4     5   ar
    33     5     6    1
    34     5     7   ar
    35    28    23   ar
    36     7     1   ar
    37    13     8    1
    38    22    15   ar
    39    33    34    1
    40    10    14    1
@<TRIPOS>MOLECULE
*****
 37 40 0 0 0
SMALL
GASTEIGER

@<TRIPOS>ATOM
      1 C         140.3326  139.0938  163.2496 C.ar    1  UNL1        0.0005
      2 C         139.6807  139.6350  162.0118 C.ar    1  UNL1       -0.0003
      3 C         140.4990  139.8786  160.7785 C.ar    1  UNL1       -0.0034
      4 C         141.9692  139.5809  160.7829 C.ar    1  UNL1       -0.0103
      5 C         142.6211  139.0397  162.0207 C.ar    1  UNL1        0.0537
      6 CL        144.0912  138.7421  162.0251 Cl      1  UNL1       -0.0826
      7 C         141.8028  138.7961  163.2540 C.ar    1  UNL1        0.0111
      8 C         142.7874  139.8245  159.5496 C.3     1  UNL1        0.0430
      9 C         142.8386  138.7879  158.4667 C.3     1  UNL1        0.0733
     10 N         143.6568  139.0314  157.2333 N.3     1  UNL1       -0.2972
     11 C         144.4239  140.3116  157.0828 C.3     1  UNL1        0.0689
     12 C         144.3727  141.3483  158.1658 C.3     1  UNL1        0.0218
     13 C         143.5545  141.1047  159.3991 C.3     1  UNL1        0.0293
     14 H         143.0177  138.9762  156.4402 H       1  UNL1        0.1233
     15 C         143.5033  142.1414  160.4820 C.ar    1  UNL1       -0.0159
     16 C         144.6489  142.2824  161.4401 C.ar    1  UNL1        0.0146
     17 C         144.5976  143.3191  162.5230 C.ar    1  UNL1        0.0781
     18 N         143.4010  144.2148  162.6478 N.ar    1  UNL1       -0.2922
     19 C         143.3497  145.2515  163.7307 C.3     1  UNL1        0.1336
     20 C         142.2554  144.0738  161.6898 C.ar    1  UNL1        0.2607
     21 O         141.0587  144.9696  161.8146 O.2     1  UNL1       -0.2670
     22 C         142.3066  143.0372  160.6069 C.ar    1  UNL1        0.0565
     23 C         139.2793  139.9645  165.4592 C.ar    1  UNL1       -0.0205
     24 C         138.4610  139.7209  166.6925 C.ar    1  UNL1       -0.0042
     25 C         137.8778  138.3630  166.9495 C.ar    1  UNL1       -0.0003
     26 C         138.1128  137.2488  165.9732 C.ar    1  UNL1       -0.0000
     27 C         138.9310  137.4924  164.7399 C.ar    1  UNL1       -0.0003
     28 C         139.5143  138.8502  164.4829 C.ar    1  UNL1       -0.0039
     29 C         139.8626  141.3223  165.2022 C.3     1  UNL1        0.0477
     30 C         138.9639  142.4699  164.8481 C.3     1  UNL1        0.0974
     31 C         138.0612  142.7428  162.4272 C.2     1  UNL1        0.4016
     32 O         136.9760  141.7494  162.7199 O.2     1  UNL1       -0.2264
     33 N         139.0551  143.1030  163.4914 N.am    1  UNL1       -0.2703
     34 H         139.7673  143.7550  163.2993 H       1  UNL1        0.1527
     35 O         138.1524  143.3759  161.0705 O.3     1  UNL1       -0.4347
     36 C         139.2545  142.9370  158.7591 C.3     1  UNL1        0.0513
     37 C         138.3163  142.5172  159.8516 C.3     1  UNL1        0.2102
@<TRIPOS>BOND
     1    36    37    1
     2    37    35    1
     3    35    31    1
     4    31    32    2
     5    31    33   am
     6    33    30    1
     7    30    29    1
     8    29    23    1
     9    23    24   ar
    10    24    25   ar
    11    25    26   ar
    12    26    27   ar
    13    27    28   ar
    14    28     1    1
    15     1     2   ar
    16     2     3   ar
    17     3     4   ar
    18     8     4    1
    19     8     9    1
    20     9    10    1
    21    10    11    1
    22    11    12    1
    23    12    13    1
    24    13    15    1
    25    15    16   ar
    26    16    17   ar
    27    17    18   ar
    28    18    19    1
    29    18    20   ar
    30    20    21    2
    31    20    22   ar
    32     4     5   ar
    33     5     6    1
    34     5     7   ar
    35    28    23   ar
    36     7     1   ar
    37    13     8    1
    38    22    15   ar
    39    33    34    1
    40    10    14    1
@<TRIPOS>MOLECULE
*****
 37 40 0 0 0
SMALL
GASTEIGER

@<TRIPOS>ATOM
      1 C         140.2073  142.7524  166.1525 C.ar    1  UNL1        0.0005
      2 C         138.9281  142.8294  165.3730 C.ar    1  UNL1       -0.0003
      3 C         138.9320  143.3792  163.9775 C.ar    1  UNL1       -0.0034
      4 C         140.2153  143.8522  163.3613 C.ar    1  UNL1       -0.0103
      5 C         141.4946  143.7752  164.1408 C.ar    1  UNL1        0.0537
      6 CL        142.7778  144.2481  163.5247 Cl      1  UNL1       -0.0826
      7 C         141.4906  143.2253  165.5364 C.ar    1  UNL1        0.0111
      8 C         140.2193  144.4020  161.9658 C.3     1  UNL1        0.0430
      9 C         139.8476  145.8348  161.7232 C.3     1  UNL1        0.0733
     10 N         139.8516  146.3847  160.3276 N.3     1  UNL1       -0.2972
     11 C         140.2273  145.5018  159.1746 C.3     1  UNL1        0.0689
     12 C         140.5990  144.0689  159.4173 C.3     1  UNL1        0.0218
     13 C         140.5950  143.5191  160.8128 C.3     1  UNL1        0.0293
     14 H         140.5033  147.1694  160.3221 H       1  UNL1        0.1233
     15 C         140.9667  142.0863  161.0554 C.ar    1  UNL1       -0.0159
     16 C         142.4104  141.6944  161.1662 C.ar    1  UNL1        0.0146
     17 C         142.7820  140.2615  161.4088 C.ar    1  UNL1        0.0781
     18 N         141.7101  139.2206  161.5407 N.ar    1  UNL1       -0.2922
     19 C         142.0817  137.7877  161.7833 C.3     1  UNL1        0.1336
     20 C         140.2664  139.6125  161.4299 C.ar    1  UNL1        0.2607
     21 O         139.1944  138.5716  161.5618 O.2     1  UNL1       -0.2670
     22 C         139.8947  141.0453  161.1873 C.ar    1  UNL1        0.0565
     23 C         140.0278  140.7300  167.7735 C.ar    1  UNL1       -0.0205
     24 C         140.0237  140.1802  169.1691 C.ar    1  UNL1       -0.0042
     25 C         140.1952  141.1029  170.3392 C.ar    1  UNL1       -0.0003
     26 C         140.3707  142.5754  170.1138 C.ar    1  UNL1       -0.0000
     27 C         140.3747  143.1252  168.7183 C.ar    1  UNL1       -0.0003
     28 C         140.2033  142.2025  167.5481 C.ar    1  UNL1       -0.0039
     29 C         139.8563  139.8073  166.6034 C.3     1  UNL1        0.0477
     30 C         141.0063  138.9640  166.1385 C.3     1  UNL1        0.0974
     31 C         143.4884  139.0616  165.3771 C.2     1  UNL1        0.4016
     32 O         143.8249  137.9550  166.3323 O.2     1  UNL1       -0.2264
     33 N         142.0791  139.5660  165.2802 N.am    1  UNL1       -0.2703
     34 H         141.8582  140.2923  164.6533 H       1  UNL1        0.1527
     35 O         144.5612  139.6636  164.5189 O.3     1  UNL1       -0.4347
     36 C         145.8011  141.7591  163.6124 C.3     1  UNL1        0.0513
     37 C         144.6682  141.1540  164.3873 C.3     1  UNL1        0.2102
@<TRIPOS>BOND
     1    36    37    1
     2    37    35    1
     3    35    31    1
     4    31    32    2
     5    31    33   am
     6    33    30    1
     7    30    29    1
     8    29    23    1
     9    23    24   ar
    10    24    25   ar
    11    25    26   ar
    12    26    27   ar
    13    27    28   ar
    14    28     1    1
    15     1     2   ar
    16     2     3   ar
    17     3     4   ar
    18     8     4    1
    19     8     9    1
    20     9    10    1
    21    10    11    1
    22    11    12    1
    23    12    13    1
    24    13    15    1
    25    15    16   ar
    26    16    17   ar
    27    17    18   ar
    28    18    19    1
    29    18    20   ar
    30    20    21    2
    31    20    22   ar
    32     4     5   ar
    33     5     6    1
    34     5     7   ar
    35    28    23   ar
    36     7     1   ar
    37    13     8    1
    38    22    15   ar
    39    33    34    1
    40    10    14    1
@<TRIPOS>MOLECULE
*****
 37 40 0 0 0
SMALL
GASTEIGER

@<TRIPOS>ATOM
      1 C         141.5014  141.4195  166.9838 C.ar    1  UNL1        0.0005
      2 C         142.9014  141.7316  166.5447 C.ar    1  UNL1       -0.0003
      3 C         143.3957  141.2468  165.2141 C.ar    1  UNL1       -0.0034
      4 C         142.4901  140.4499  164.3225 C.ar    1  UNL1       -0.0103
      5 C         141.0901  140.1378  164.7616 C.ar    1  UNL1        0.0537
      6 CL        140.1845  139.3409  163.8701 Cl      1  UNL1       -0.0826
      7 C         140.5958  140.6226  166.0923 C.ar    1  UNL1        0.0111
      8 C         142.9844  139.9651  162.9919 C.3     1  UNL1        0.0430
      9 C         143.7156  138.6590  162.8939 C.3     1  UNL1        0.0733
     10 N         144.2099  138.1742  161.5633 N.3     1  UNL1       -0.2972
     11 C         143.9731  138.9954  160.3306 C.3     1  UNL1        0.0689
     12 C         143.2419  140.3015  160.4286 C.3     1  UNL1        0.0218
     13 C         142.7476  140.7863  161.7592 C.3     1  UNL1        0.0293
     14 H         143.7745  137.2663  161.4004 H       1  UNL1        0.1233
     15 C         142.0164  142.0923  161.8572 C.ar    1  UNL1       -0.0159
     16 C         142.7602  143.3427  162.2222 C.ar    1  UNL1        0.0146
     17 C         142.0289  144.6488  162.3202 C.ar    1  UNL1        0.0781
     18 N         140.5540  144.7044  162.0530 N.ar    1  UNL1       -0.2922
     19 C         139.8227  146.0105  162.1510 C.3     1  UNL1        0.1336
     20 C         139.8102  143.4540  161.6880 C.ar    1  UNL1        0.2607
     21 O         138.3352  143.5097  161.4209 O.2     1  UNL1       -0.2670
     22 C         140.5414  142.1480  161.5900 C.ar    1  UNL1        0.0565
     23 C         140.9031  140.9516  169.4684 C.ar    1  UNL1       -0.0205
     24 C         140.4088  141.4365  170.7990 C.ar    1  UNL1       -0.0042
     25 C         140.0185  142.8740  170.9757 C.ar    1  UNL1       -0.0003
     26 C         140.1226  143.8267  169.8218 C.ar    1  UNL1       -0.0000
     27 C         140.6168  143.3418  168.4912 C.ar    1  UNL1       -0.0003
     28 C         141.0071  141.9043  168.3145 C.ar    1  UNL1       -0.0039
     29 C         141.2934  139.5141  169.2917 C.3     1  UNL1        0.0477
     30 C         142.7164  139.0914  169.5068 C.3     1  UNL1        0.0974
     31 C         143.9489  136.9820  170.3908 C.2     1  UNL1        0.4016
     32 O         144.4911  136.7229  169.0165 O.2     1  UNL1       -0.2264
     33 N         143.0615  138.1663  170.6360 N.am    1  UNL1       -0.2703
     34 H         142.7056  138.3364  171.5380 H       1  UNL1        0.1527
     35 O         144.2940  136.0569  171.5200 O.3     1  UNL1       -0.4347
     36 C         145.9784  135.6601  173.4579 C.3     1  UNL1        0.0513
     37 C         145.7071  135.9739  172.0164 C.3     1  UNL1        0.2102
@<TRIPOS>BOND
     1    36    37    1
     2    37    35    1
     3    35    31    1
     4    31    32    2
     5    31    33   am
     6    33    30    1
     7    30    29    1
     8    29    23    1
     9    23    24   ar
    10    24    25   ar
    11    25    26   ar
    12    26    27   ar
    13    27    28   ar
    14    28     1    1
    15     1     2   ar
    16     2     3   ar
    17     3     4   ar
    18     8     4    1
    19     8     9    1
    20     9    10    1
    21    10    11    1
    22    11    12    1
    23    12    13    1
    24    13    15    1
    25    15    16   ar
    26    16    17   ar
    27    17    18   ar
    28    18    19    1
    29    18    20   ar
    30    20    21    2
    31    20    22   ar
    32     4     5   ar
    33     5     6    1
    34     5     7   ar
    35    28    23   ar
    36     7     1   ar
    37    13     8    1
    38    22    15   ar
    39    33    34    1
    40    10    14    1
@<TRIPOS>MOLECULE
*****
 37 40 0 0 0
SMALL
GASTEIGER

@<TRIPOS>ATOM
      1 C         141.2429  139.0024  160.2551 C.ar    1  UNL1        0.0005
      2 C         142.0287  139.0642  161.5313 C.ar    1  UNL1       -0.0003
      3 C         141.3274  138.9359  162.8509 C.ar    1  UNL1       -0.0034
      4 C         139.8401  138.7456  162.8945 C.ar    1  UNL1       -0.0103
      5 C         139.0542  138.6838  161.6183 C.ar    1  UNL1        0.0537
      6 CL        137.5670  138.4935  161.6618 Cl      1  UNL1       -0.0826
      7 C         139.7557  138.8122  160.2986 C.ar    1  UNL1        0.0111
      8 C         139.1387  138.6173  164.2142 C.3     1  UNL1        0.0430
      9 C         138.9627  137.2662  164.8416 C.3     1  UNL1        0.0733
     10 N         138.2613  137.1378  166.1614 N.3     1  UNL1       -0.2972
     11 C         137.7359  138.3604  166.8535 C.3     1  UNL1        0.0689
     12 C         137.9119  139.7115  166.2260 C.3     1  UNL1        0.0218
     13 C         138.6133  139.8399  164.9063 C.3     1  UNL1        0.0293
     14 H         138.9199  136.6963  166.8031 H       1  UNL1        0.1233
     15 C         138.7892  141.1909  164.2789 C.ar    1  UNL1       -0.0159
     16 C         137.7298  141.7392  163.3695 C.ar    1  UNL1        0.0146
     17 C         137.9058  143.0903  162.7420 C.ar    1  UNL1        0.0781
     18 N         139.1412  143.8930  163.0239 N.ar    1  UNL1       -0.2922
     19 C         139.3172  145.2441  162.3964 C.3     1  UNL1        0.1336
     20 C         140.2007  143.3446  163.9332 C.ar    1  UNL1        0.2607
     21 O         141.4361  144.1473  164.2151 O.2     1  UNL1       -0.2670
     22 C         140.0247  141.9936  164.5607 C.ar    1  UNL1        0.0565
     23 C         142.2962  140.4878  158.4020 C.ar    1  UNL1       -0.0205
     24 C         142.9976  140.6161  157.0823 C.ar    1  UNL1       -0.0042
     25 C         143.3471  139.3874  156.2961 C.ar    1  UNL1       -0.0003
     26 C         142.9952  138.0304  156.8295 C.ar    1  UNL1       -0.0000
     27 C         142.2938  137.9021  158.1492 C.ar    1  UNL1       -0.0003
     28 C         141.9443  139.1308  158.9354 C.ar    1  UNL1       -0.0039
     29 C         141.9467  141.7165  159.1882 C.3     1  UNL1        0.0477
     30 C         143.0299  142.5203  159.8445 C.3     1  UNL1        0.0974
     31 C         144.7906  142.5555  161.7546 C.2     1  UNL1        0.4016
     32 O         144.4116  143.9704  162.0779 O.2     1  UNL1       -0.2264
     33 N         144.0997  141.8304  160.6379 N.am    1  UNL1       -0.2703
     34 H         144.3484  140.9018  160.4258 H       1  UNL1        0.1527
     35 O         145.8604  141.8657  162.5481 O.3     1  UNL1       -0.4347
     36 C         145.0017  139.9041  164.0194 C.3     1  UNL1        0.0513
     37 C         145.5434  141.2978  163.8997 C.3     1  UNL1        0.2102
@<TRIPOS>BOND
     1    36    37    1
     2    37    35    1
     3    35    31    1
     4    31    32    2
     5    31    33   am
     6    33    30    1
     7    30    29    1
     8    29    23    1
     9    23    24   ar
    10    24    25   ar
    11    25    26   ar
    12    26    27   ar
    13    27    28   ar
    14    28     1    1
    15     1     2   ar
    16     2     3   ar
    17     3     4   ar
    18     8     4    1
    19     8     9    1
    20     9    10    1
    21    10    11    1
    22    11    12    1
    23    12    13    1
    24    13    15    1
    25    15    16   ar
    26    16    17   ar
    27    17    18   ar
    28    18    19    1
    29    18    20   ar
    30    20    21    2
    31    20    22   ar
    32     4     5   ar
    33     5     6    1
    34     5     7   ar
    35    28    23   ar
    36     7     1   ar
    37    13     8    1
    38    22    15   ar
    39    33    34    1
    40    10    14    1
@<TRIPOS>MOLECULE
*****
 37 40 0 0 0
SMALL
GASTEIGER

@<TRIPOS>ATOM
      1 C         142.4925  139.2840  161.5267 C.ar    1  UNL1        0.0005
      2 C         141.2474  139.1562  162.3533 C.ar    1  UNL1       -0.0003
      3 C         141.3060  139.3739  163.8362 C.ar    1  UNL1       -0.0034
      4 C         142.6097  139.7195  164.4926 C.ar    1  UNL1       -0.0103
      5 C         143.8549  139.8473  163.6660 C.ar    1  UNL1        0.0537
      6 CL        145.1586  140.1929  164.3224 Cl      1  UNL1       -0.0826
      7 C         143.7963  139.6296  162.1830 C.ar    1  UNL1        0.0111
      8 C         142.6683  139.9372  165.9755 C.3     1  UNL1        0.0430
      9 C         143.0359  138.8033  166.8860 C.3     1  UNL1        0.0733
     10 N         143.0945  139.0209  168.3691 N.3     1  UNL1       -0.2972
     11 C         142.7855  140.3726  168.9415 C.3     1  UNL1        0.0689
     12 C         142.4179  141.5065  168.0309 C.3     1  UNL1        0.0218
     13 C         142.3593  141.2888  166.5479 C.3     1  UNL1        0.0293
     14 H         144.0423  138.7860  168.6639 H       1  UNL1        0.1233
     15 C         141.9917  142.4227  165.6374 C.ar    1  UNL1       -0.0159
     16 C         143.0616  143.1599  164.8880 C.ar    1  UNL1        0.0146
     17 C         142.6940  144.2939  163.9774 C.ar    1  UNL1        0.0781
     18 N         141.2564  144.6905  163.8164 N.ar    1  UNL1       -0.2922
     19 C         140.8887  145.8245  162.9058 C.3     1  UNL1        0.1336
     20 C         140.1864  143.9533  164.5658 C.ar    1  UNL1        0.2607
     21 O         138.7488  144.3500  164.4047 O.2     1  UNL1       -0.2670
     22 C         140.5540  142.8194  165.4763 C.ar    1  UNL1        0.0565
     23 C         142.0490  140.1955  159.1345 C.ar    1  UNL1       -0.0205
     24 C         141.9903  139.9777  157.6516 C.ar    1  UNL1       -0.0042
     25 C         142.3167  138.6308  157.0778 C.ar    1  UNL1       -0.0003
     26 C         142.7016  137.5016  157.9870 C.ar    1  UNL1       -0.0000
     27 C         142.7603  137.7193  159.4699 C.ar    1  UNL1       -0.0003
     28 C         142.4339  139.0663  160.0437 C.ar    1  UNL1       -0.0039
     29 C         141.7226  141.5425  159.7082 C.3     1  UNL1        0.0477
     30 C         140.3104  142.0472  159.6807 C.3     1  UNL1        0.0974
     31 C         138.4022  142.4307  161.4018 C.2     1  UNL1        0.4016
     32 O         138.5174  143.9125  161.1994 O.2     1  UNL1       -0.2264
     33 N         139.2988  141.4980  160.6425 N.am    1  UNL1       -0.2703
     34 H         139.2232  140.5255  160.7753 H       1  UNL1        0.1527
     35 O         137.3906  141.8815  162.3635 O.3     1  UNL1       -0.4347
     36 C         137.9274  140.6387  164.5810 C.3     1  UNL1        0.0513
     37 C         137.6732  140.6074  163.1031 C.3     1  UNL1        0.2102
@<TRIPOS>BOND
     1    36    37    1
     2    37    35    1
     3    35    31    1
     4    31    32    2
     5    31    33   am
     6    33    30    1
     7    30    29    1
     8    29    23    1
     9    23    24   ar
    10    24    25   ar
    11    25    26   ar
    12    26    27   ar
    13    27    28   ar
    14    28     1    1
    15     1     2   ar
    16     2     3   ar
    17     3     4   ar
    18     8     4    1
    19     8     9    1
    20     9    10    1
    21    10    11    1
    22    11    12    1
    23    12    13    1
    24    13    15    1
    25    15    16   ar
    26    16    17   ar
    27    17    18   ar
    28    18    19    1
    29    18    20   ar
    30    20    21    2
    31    20    22   ar
    32     4     5   ar
    33     5     6    1
    34     5     7   ar
    35    28    23   ar
    36     7     1   ar
    37    13     8    1
    38    22    15   ar
    39    33    34    1
    40    10    14    1
@<TRIPOS>MOLECULE
*****
 37 40 0 0 0
SMALL
GASTEIGER

@<TRIPOS>ATOM
      1 C         140.8151  143.8949  164.1327 C.ar    1  UNL1        0.0005
      2 C         139.5537  143.8396  164.9424 C.ar    1  UNL1       -0.0003
      3 C         139.5779  143.2724  166.3308 C.ar    1  UNL1       -0.0034
      4 C         140.8637  142.7603  166.9095 C.ar    1  UNL1       -0.0103
      5 C         142.1251  142.8156  166.0997 C.ar    1  UNL1        0.0537
      6 CL        143.4108  142.3035  166.6783 Cl      1  UNL1       -0.0826
      7 C         142.1008  143.3829  164.7112 C.ar    1  UNL1        0.0111
      8 C         140.8879  142.1931  168.2978 C.3     1  UNL1        0.0430
      9 C         141.2594  143.0672  169.4587 C.3     1  UNL1        0.0733
     10 N         141.2837  142.5000  170.8472 N.3     1  UNL1       -0.2972
     11 C         140.9365  141.0585  171.0746 C.3     1  UNL1        0.0689
     12 C         140.5650  140.1844  169.9136 C.3     1  UNL1        0.0218
     13 C         140.5407  140.7516  168.5252 C.3     1  UNL1        0.0293
     14 H         140.6293  143.0516  171.4021 H       1  UNL1        0.1233
     15 C         140.1692  139.8775  167.3643 C.ar    1  UNL1       -0.0159
     16 C         138.7336  139.5105  167.1309 C.ar    1  UNL1        0.0146
     17 C         138.3622  138.6363  165.9699 C.ar    1  UNL1        0.0781
     18 N         139.4263  138.1291  165.0424 N.ar    1  UNL1       -0.2922
     19 C         139.0548  137.2549  163.8814 C.3     1  UNL1        0.1336
     20 C         140.8619  138.4960  165.2758 C.ar    1  UNL1        0.2607
     21 O         141.9260  137.9887  164.3482 O.2     1  UNL1       -0.2670
     22 C         141.2333  139.3702  166.4367 C.ar    1  UNL1        0.0565
     23 C         141.6681  143.8750  161.6787 C.ar    1  UNL1       -0.0205
     24 C         141.6438  144.4423  160.2903 C.ar    1  UNL1       -0.0042
     25 C         140.7421  145.5968  159.9676 C.ar    1  UNL1       -0.0003
     26 C         139.8648  146.1840  161.0331 C.ar    1  UNL1       -0.0000
     27 C         139.8891  145.6167  162.4215 C.ar    1  UNL1       -0.0003
     28 C         140.7908  144.4622  162.7442 C.ar    1  UNL1       -0.0039
     29 C         142.5698  142.7205  162.0015 C.3     1  UNL1        0.0477
     30 C         142.3188  141.3772  161.3832 C.3     1  UNL1        0.0974
     31 C         139.8839  140.5547  161.0023 C.2     1  UNL1        0.4016
     32 O         139.8052  141.3699  159.7456 O.2     1  UNL1       -0.2264
     33 N         141.1408  140.5583  161.8211 N.am    1  UNL1       -0.2703
     34 H         141.1925  140.0233  162.6459 H       1  UNL1        0.1527
     35 O         138.7059  139.7359  161.4402 O.3     1  UNL1       -0.4347
     36 C         137.6982  141.8179  162.6232 C.3     1  UNL1        0.0513
     37 C         137.6176  140.3652  162.2584 C.3     1  UNL1        0.2102
@<TRIPOS>BOND
     1    36    37    1
     2    37    35    1
     3    35    31    1
     4    31    32    2
     5    31    33   am
     6    33    30    1
     7    30    29    1
     8    29    23    1
     9    23    24   ar
    10    24    25   ar
    11    25    26   ar
    12    26    27   ar
    13    27    28   ar
    14    28     1    1
    15     1     2   ar
    16     2     3   ar
    17     3     4   ar
    18     8     4    1
    19     8     9    1
    20     9    10    1
    21    10    11    1
    22    11    12    1
    23    12    13    1
    24    13    15    1
    25    15    16   ar
    26    16    17   ar
    27    17    18   ar
    28    18    19    1
    29    18    20   ar
    30    20    21    2
    31    20    22   ar
    32     4     5   ar
    33     5     6    1
    34     5     7   ar
    35    28    23   ar
    36     7     1   ar
    37    13     8    1
    38    22    15   ar
    39    33    34    1
    40    10    14    1
