@<TRIPOS>MOLECULE
*****
 36 40 0 0 0
SMALL
GASTEIGER

@<TRIPOS>ATOM
      1 N         137.8469  142.9438  162.9180 N.3     1  UNL1       -0.2711
      2 C         137.6410  141.8139  163.8828 C.3     1  UNL1        0.0735
      3 C         137.6628  140.3963  163.3933 C.3     1  UNL1        0.0331
      4 C         137.8906  140.1085  161.9389 C.3     1  UNL1        0.0570
      5 C         138.0965  141.2384  160.9741 C.3     1  UNL1        0.0331
      6 C         138.0747  142.6560  161.4636 C.3     1  UNL1        0.0735
      7 N         137.9125  138.6907  161.4493 N.3     1  UNL1       -0.2934
      8 H         137.3415  138.6621  160.6046 H       1  UNL1        0.1236
      9 C         139.2181  138.0339  161.1119 C.3     1  UNL1        0.1152
     10 C         140.4075  138.2264  162.0053 C.ar    1  UNL1        0.0765
     11 C         140.5490  137.4059  163.2529 C.ar    1  UNL1        0.0193
     12 C         141.7385  137.5984  164.1464 C.ar    1  UNL1        0.0411
     13 C         142.7864  138.6116  163.7921 C.ar    1  UNL1        0.1708
     14 C         142.6448  139.4322  162.5444 C.ar    1  UNL1        0.1682
     15 N         141.4554  139.2396  161.6511 N.ar    1  UNL1       -0.2304
     16 N         143.6927  140.4453  162.1902 N.am    1  UNL1       -0.2639
     17 C         144.8822  140.6378  163.0837 C.2     1  UNL1        0.2718
     18 O         145.9300  141.6510  162.7294 O.2     1  UNL1       -0.2707
     19 C         145.0237  139.8173  164.3313 C.3     1  UNL1        0.2898
     20 O         143.9758  138.8041  164.6855 O.3     1  UNL1       -0.4628
     21 H         143.5998  140.9839  161.3713 H       1  UNL1        0.1565
     22 C         137.8250  144.3616  163.4075 C.3     1  UNL1        0.0942
     23 C         138.8261  144.8185  164.4270 C.3     1  UNL1        0.1155
     24 C         140.8085  141.8960  167.2160 C.ar    1  UNL1        0.1400
     25 C         142.2605  141.5616  167.0436 C.ar    1  UNL1        0.0367
     26 C         143.0518  142.2014  165.9415 C.ar    1  UNL1        0.0001
     27 C         142.3910  143.1756  165.0119 C.ar    1  UNL1       -0.0078
     28 C         140.9390  143.5099  165.1843 C.ar    1  UNL1        0.0529
     29 C         140.1477  142.8701  166.2863 C.ar    1  UNL1        0.0515
     30 N         140.2781  144.4841  164.2546 N.am    1  UNL1       -0.2574
     31 C         141.0693  145.1240  163.1525 C.2     1  UNL1        0.2297
     32 O         140.4086  146.0981  162.2228 O.2     1  UNL1       -0.2745
     33 C         142.5215  144.7896  162.9801 C.3     1  UNL1        0.0903
     34 C         143.1822  143.8154  163.9098 C.3     1  UNL1        0.0372
     35 C         140.5921  140.0989  169.0797 C.3     1  UNL1        0.2525
     36 O         140.0172  141.2561  168.3181 O.3     1  UNL1       -0.4714
@<TRIPOS>BOND
     1    35    36    1
     2    36    24    1
     3    24    25   ar
     4    25    26   ar
     5    26    27   ar
     6    27    28   ar
     7    28    29   ar
     8    28    30    1
     9    30    23    1
    10    23    22    1
    11    22     1    1
    12     1     2    1
    13     2     3    1
    14     3     4    1
    15     4     7    1
    16     7     9    1
    17     9    10    1
    18    10    11   ar
    19    11    12   ar
    20    12    13   ar
    21    13    14   ar
    22    14    15   ar
    23    14    16    1
    24    16    17   am
    25    17    18    2
    26    17    19    1
    27    19    20    1
    28     4     5    1
    29     5     6    1
    30    30    31   am
    31    31    32    2
    32    31    33    1
    33    33    34    1
    34    29    24   ar
    35     6     1    1
    36    34    27    1
    37    15    10   ar
    38    20    13    1
    39     7     8    1
    40    16    21    1
@<TRIPOS>MOLECULE
*****
 36 40 0 0 0
SMALL
GASTEIGER

@<TRIPOS>ATOM
      1 N         142.7154  144.1935  163.2689 N.3     1  UNL1       -0.2711
      2 C         142.5254  143.8354  161.8247 C.3     1  UNL1        0.0735
      3 C         141.1428  143.7434  161.2504 C.3     1  UNL1        0.0331
      4 C         139.9501  144.0095  162.1203 C.3     1  UNL1        0.0570
      5 C         140.1402  144.3676  163.5645 C.3     1  UNL1        0.0331
      6 C         141.5228  144.4596  164.1388 C.3     1  UNL1        0.0735
      7 N         138.5674  143.9175  161.5461 N.3     1  UNL1       -0.2934
      8 H         138.5203  144.5920  160.7823 H       1  UNL1        0.1236
      9 C         138.0663  142.6123  161.0027 C.3     1  UNL1        0.1152
     10 C         138.2869  141.3447  161.7737 C.ar    1  UNL1        0.0765
     11 C         138.8219  140.1278  161.0789 C.ar    1  UNL1        0.0193
     12 C         139.0425  138.8601  161.8499 C.ar    1  UNL1        0.0411
     13 C         138.7281  138.8094  163.3157 C.ar    1  UNL1        0.1708
     14 C         138.1931  140.0265  164.0105 C.ar    1  UNL1        0.1682
     15 N         137.9725  141.2941  163.2395 N.ar    1  UNL1       -0.2304
     16 N         137.8787  139.9758  165.4763 N.am    1  UNL1       -0.2639
     17 C         138.0993  138.7081  166.2473 C.2     1  UNL1        0.2718
     18 O         137.7849  138.6574  167.7131 O.2     1  UNL1       -0.2707
     19 C         138.6343  137.4912  165.5525 C.3     1  UNL1        0.2898
     20 O         138.9487  137.5418  164.0867 O.3     1  UNL1       -0.4628
     21 H         137.5275  140.7745  165.9323 H       1  UNL1        0.1565
     22 C         144.0981  144.2855  163.8431 C.3     1  UNL1        0.0942
     23 C         144.4699  143.4602  165.0392 C.3     1  UNL1        0.1155
     24 C         141.3439  141.6264  167.7067 C.ar    1  UNL1        0.1400
     25 C         141.1225  140.1429  167.6925 C.ar    1  UNL1        0.0367
     26 C         141.9430  139.2707  166.7892 C.ar    1  UNL1        0.0001
     27 C         142.9850  139.8819  165.9001 C.ar    1  UNL1       -0.0078
     28 C         143.2064  141.3654  165.9142 C.ar    1  UNL1        0.0529
     29 C         142.3859  142.2376  166.8176 C.ar    1  UNL1        0.0515
     30 N         144.2484  141.9767  165.0251 N.am    1  UNL1       -0.2574
     31 C         145.0689  141.1045  164.1217 C.2     1  UNL1        0.2297
     32 O         146.1109  141.7157  163.2326 O.2     1  UNL1       -0.2745
     33 C         144.8474  139.6210  164.1076 C.3     1  UNL1        0.0903
     34 C         143.8055  139.0097  164.9967 C.3     1  UNL1        0.0372
     35 C         140.1138  142.0005  169.9643 C.3     1  UNL1        0.2525
     36 O         140.5234  142.4986  168.6100 O.3     1  UNL1       -0.4714
@<TRIPOS>BOND
     1    35    36    1
     2    36    24    1
     3    24    25   ar
     4    25    26   ar
     5    26    27   ar
     6    27    28   ar
     7    28    29   ar
     8    28    30    1
     9    30    23    1
    10    23    22    1
    11    22     1    1
    12     1     2    1
    13     2     3    1
    14     3     4    1
    15     4     7    1
    16     7     9    1
    17     9    10    1
    18    10    11   ar
    19    11    12   ar
    20    12    13   ar
    21    13    14   ar
    22    14    15   ar
    23    14    16    1
    24    16    17   am
    25    17    18    2
    26    17    19    1
    27    19    20    1
    28     4     5    1
    29     5     6    1
    30    30    31   am
    31    31    32    2
    32    31    33    1
    33    33    34    1
    34    29    24   ar
    35     6     1    1
    36    34    27    1
    37    15    10   ar
    38    20    13    1
    39     7     8    1
    40    16    21    1
@<TRIPOS>MOLECULE
*****
 36 40 0 0 0
SMALL
GASTEIGER

@<TRIPOS>ATOM
      1 N         141.7674  138.1725  164.2402 N.3     1  UNL1       -0.2711
      2 C         142.8321  138.5094  165.2418 C.3     1  UNL1        0.0735
      3 C         144.0557  139.2626  164.8111 C.3     1  UNL1        0.0331
      4 C         144.2146  139.6788  163.3788 C.3     1  UNL1        0.0570
      5 C         143.1500  139.3419  162.3773 C.3     1  UNL1        0.0331
      6 C         141.9264  138.5888  162.8080 C.3     1  UNL1        0.0735
      7 N         145.4383  140.4320  162.9480 N.3     1  UNL1       -0.2934
      8 H         145.5094  140.3242  161.9363 H       1  UNL1        0.1236
      9 C         145.5561  141.8993  163.2366 C.3     1  UNL1        0.1152
     10 C         144.3497  142.7841  163.1288 C.ar    1  UNL1        0.0765
     11 C         143.6842  143.2993  164.3704 C.ar    1  UNL1        0.0193
     12 C         142.4777  144.1841  164.2626 C.ar    1  UNL1        0.0411
     13 C         141.9368  144.5537  162.9132 C.ar    1  UNL1        0.1708
     14 C         142.6024  144.0384  161.6716 C.ar    1  UNL1        0.1682
     15 N         143.8088  143.1536  161.7794 N.ar    1  UNL1       -0.2304
     16 N         142.0615  144.4080  160.3222 N.am    1  UNL1       -0.2639
     17 C         140.8550  145.2928  160.2145 C.2     1  UNL1        0.2718
     18 O         140.3141  145.6624  158.8651 O.2     1  UNL1       -0.2707
     19 C         140.1895  145.8081  161.4561 C.3     1  UNL1        0.2898
     20 O         140.7304  145.4385  162.8055 O.3     1  UNL1       -0.4628
     21 H         142.4983  144.0698  159.5073 H       1  UNL1        0.1565
     22 C         140.5438  137.4194  164.6710 C.3     1  UNL1        0.0942
     23 C         139.3562  138.1621  165.2076 C.3     1  UNL1        0.1155
     24 C         140.8402  141.0775  168.2975 C.ar    1  UNL1        0.1400
     25 C         140.7087  142.5529  168.0608 C.ar    1  UNL1        0.0367
     26 C         140.0825  143.0564  166.7942 C.ar    1  UNL1        0.0001
     27 C         139.5878  142.0846  165.7643 C.ar    1  UNL1       -0.0078
     28 C         139.7193  140.6093  166.0009 C.ar    1  UNL1        0.0529
     29 C         140.3455  140.1058  167.2675 C.ar    1  UNL1        0.0515
     30 N         139.2246  139.6374  164.9709 N.am    1  UNL1       -0.2574
     31 C         138.5984  140.1410  163.7043 C.2     1  UNL1        0.2297
     32 O         138.1037  139.1692  162.6744 O.2     1  UNL1       -0.2745
     33 C         138.4669  141.6164  163.4677 C.3     1  UNL1        0.0903
     34 C         138.9615  142.5882  164.4977 C.3     1  UNL1        0.0372
     35 C         142.4136  139.4116  169.5219 C.3     1  UNL1        0.2525
     36 O         141.4664  140.5740  169.5641 O.3     1  UNL1       -0.4714
@<TRIPOS>BOND
     1    35    36    1
     2    36    24    1
     3    24    25   ar
     4    25    26   ar
     5    26    27   ar
     6    27    28   ar
     7    28    29   ar
     8    28    30    1
     9    30    23    1
    10    23    22    1
    11    22     1    1
    12     1     2    1
    13     2     3    1
    14     3     4    1
    15     4     7    1
    16     7     9    1
    17     9    10    1
    18    10    11   ar
    19    11    12   ar
    20    12    13   ar
    21    13    14   ar
    22    14    15   ar
    23    14    16    1
    24    16    17   am
    25    17    18    2
    26    17    19    1
    27    19    20    1
    28     4     5    1
    29     5     6    1
    30    30    31   am
    31    31    32    2
    32    31    33    1
    33    33    34    1
    34    29    24   ar
    35     6     1    1
    36    34    27    1
    37    15    10   ar
    38    20    13    1
    39     7     8    1
    40    16    21    1
@<TRIPOS>MOLECULE
*****
 36 40 0 0 0
SMALL
GASTEIGER

@<TRIPOS>ATOM
      1 N         141.6057  138.5883  164.5511 N.3     1  UNL1       -0.2711
      2 C         141.6649  139.0956  163.1407 C.3     1  UNL1        0.0735
      3 C         142.9234  139.7263  162.6227 C.3     1  UNL1        0.0331
      4 C         144.1226  139.8497  163.5151 C.3     1  UNL1        0.0570
      5 C         144.0634  139.3424  164.9255 C.3     1  UNL1        0.0331
      6 C         142.8050  138.7117  165.4435 C.3     1  UNL1        0.0735
      7 N         145.3812  140.4804  162.9971 N.3     1  UNL1       -0.2934
      8 H         145.4362  140.2553  162.0038 H       1  UNL1        0.1236
      9 C         145.5819  141.9621  163.1171 C.3     1  UNL1        0.1152
     10 C         144.4060  142.8884  163.0218 C.ar    1  UNL1        0.0765
     11 C         143.8582  143.5347  164.2595 C.ar    1  UNL1        0.0193
     12 C         142.6822  144.4610  164.1643 C.ar    1  UNL1        0.0411
     13 C         142.0541  144.7410  162.8312 C.ar    1  UNL1        0.1708
     14 C         142.6020  144.0946  161.5934 C.ar    1  UNL1        0.1682
     15 N         143.7779  143.1684  161.6887 N.ar    1  UNL1       -0.2304
     16 N         141.9739  144.3746  160.2603 N.am    1  UNL1       -0.2639
     17 C         140.7979  145.3010  160.1650 C.2     1  UNL1        0.2718
     18 O         140.1698  145.5810  158.8319 O.2     1  UNL1       -0.2707
     19 C         140.2500  145.9473  161.4028 C.3     1  UNL1        0.2898
     20 O         140.8781  145.6673  162.7359 O.3     1  UNL1       -0.4628
     21 H         142.3335  143.9504  159.4479 H       1  UNL1        0.1565
     22 C         140.3471  137.9576  165.0691 C.3     1  UNL1        0.0942
     23 C         139.3744  138.7721  165.8694 C.3     1  UNL1        0.1155
     24 C         137.7738  141.5369  162.7002 C.ar    1  UNL1        0.1400
     25 C         137.9658  143.0188  162.8311 C.ar    1  UNL1        0.0367
     26 C         138.6914  143.5790  164.0185 C.ar    1  UNL1        0.0001
     27 C         139.2249  142.6575  165.0748 C.ar    1  UNL1       -0.0078
     28 C         139.0329  141.1756  164.9439 C.ar    1  UNL1        0.0529
     29 C         138.3074  140.6153  163.7566 C.ar    1  UNL1        0.0515
     30 N         139.5664  140.2539  166.0003 N.am    1  UNL1       -0.2574
     31 C         140.2920  140.8142  167.1876 C.2     1  UNL1        0.2297
     32 O         140.8255  139.8926  168.2440 O.2     1  UNL1       -0.2745
     33 C         140.4839  142.2961  167.3185 C.3     1  UNL1        0.0903
     34 C         139.9504  143.2177  166.2621 C.3     1  UNL1        0.0372
     35 C         137.7151  139.9553  160.6399 C.3     1  UNL1        0.2525
     36 O         137.0483  140.9766  161.5129 O.3     1  UNL1       -0.4714
@<TRIPOS>BOND
     1    35    36    1
     2    36    24    1
     3    24    25   ar
     4    25    26   ar
     5    26    27   ar
     6    27    28   ar
     7    28    29   ar
     8    28    30    1
     9    30    23    1
    10    23    22    1
    11    22     1    1
    12     1     2    1
    13     2     3    1
    14     3     4    1
    15     4     7    1
    16     7     9    1
    17     9    10    1
    18    10    11   ar
    19    11    12   ar
    20    12    13   ar
    21    13    14   ar
    22    14    15   ar
    23    14    16    1
    24    16    17   am
    25    17    18    2
    26    17    19    1
    27    19    20    1
    28     4     5    1
    29     5     6    1
    30    30    31   am
    31    31    32    2
    32    31    33    1
    33    33    34    1
    34    29    24   ar
    35     6     1    1
    36    34    27    1
    37    15    10   ar
    38    20    13    1
    39     7     8    1
    40    16    21    1
@<TRIPOS>MOLECULE
*****
 36 40 0 0 0
SMALL
GASTEIGER

@<TRIPOS>ATOM
      1 N         143.3194  140.4275  160.6148 N.3     1  UNL1       -0.2711
      2 C         141.8237  140.4224  160.7281 C.3     1  UNL1        0.0735
      3 C         141.1284  139.2924  161.4278 C.3     1  UNL1        0.0331
      4 C         141.9288  138.1676  162.0144 C.3     1  UNL1        0.0570
      5 C         143.4246  138.1728  161.9012 C.3     1  UNL1        0.0331
      6 C         144.1198  139.3028  161.2014 C.3     1  UNL1        0.0735
      7 N         141.2336  137.0376  162.7142 N.3     1  UNL1       -0.2934
      8 H         141.6536  136.1745  162.3690 H       1  UNL1        0.1236
      9 C         141.2512  136.9588  164.2121 C.3     1  UNL1        0.1152
     10 C         140.9630  138.1821  165.0309 C.ar    1  UNL1        0.0765
     11 C         139.5669  138.7263  165.1002 C.ar    1  UNL1        0.0193
     12 C         139.2786  139.9496  165.9191 C.ar    1  UNL1        0.0411
     13 C         140.3864  140.6287  166.6685 C.ar    1  UNL1        0.1708
     14 C         141.7825  140.0844  166.5991 C.ar    1  UNL1        0.1682
     15 N         142.0708  138.8611  165.7803 N.ar    1  UNL1       -0.2304
     16 N         142.8904  140.7634  167.3486 N.am    1  UNL1       -0.2639
     17 C         142.6021  141.9868  168.1674 C.2     1  UNL1        0.2718
     18 O         143.7099  142.6658  168.9168 O.2     1  UNL1       -0.2707
     19 C         141.2060  142.5310  168.2368 C.3     1  UNL1        0.2898
     20 O         140.0982  141.8519  167.4873 O.3     1  UNL1       -0.4628
     21 H         143.8066  140.4062  167.3030 H       1  UNL1        0.1565
     22 C         144.0146  141.5576  159.9150 C.3     1  UNL1        0.0942
     23 C         144.5912  142.6910  160.7105 C.3     1  UNL1        0.1155
     24 C         140.8130  145.0479  161.3587 C.ar    1  UNL1        0.1400
     25 C         140.3234  145.3118  162.7517 C.ar    1  UNL1        0.0367
     26 C         141.0932  144.7901  163.9287 C.ar    1  UNL1        0.0001
     27 C         142.3526  144.0045  163.7127 C.ar    1  UNL1       -0.0078
     28 C         142.8422  143.7406  162.3197 C.ar    1  UNL1        0.0529
     29 C         142.0724  144.2623  161.1427 C.ar    1  UNL1        0.0515
     30 N         144.1016  142.9550  162.1036 N.am    1  UNL1       -0.2574
     31 C         144.8714  142.4333  163.2806 C.2     1  UNL1        0.2297
     32 O         146.1308  141.6477  163.0645 O.2     1  UNL1       -0.2745
     33 C         144.3817  142.6972  164.6736 C.3     1  UNL1        0.0903
     34 C         143.1223  143.4828  164.8897 C.3     1  UNL1        0.0372
     35 C         140.0902  144.8402  158.8719 C.3     1  UNL1        0.2525
     36 O         140.0432  145.5695  160.1817 O.3     1  UNL1       -0.4714
@<TRIPOS>BOND
     1    35    36    1
     2    36    24    1
     3    24    25   ar
     4    25    26   ar
     5    26    27   ar
     6    27    28   ar
     7    28    29   ar
     8    28    30    1
     9    30    23    1
    10    23    22    1
    11    22     1    1
    12     1     2    1
    13     2     3    1
    14     3     4    1
    15     4     7    1
    16     7     9    1
    17     9    10    1
    18    10    11   ar
    19    11    12   ar
    20    12    13   ar
    21    13    14   ar
    22    14    15   ar
    23    14    16    1
    24    16    17   am
    25    17    18    2
    26    17    19    1
    27    19    20    1
    28     4     5    1
    29     5     6    1
    30    30    31   am
    31    31    32    2
    32    31    33    1
    33    33    34    1
    34    29    24   ar
    35     6     1    1
    36    34    27    1
    37    15    10   ar
    38    20    13    1
    39     7     8    1
    40    16    21    1
@<TRIPOS>MOLECULE
*****
 36 40 0 0 0
SMALL
GASTEIGER

@<TRIPOS>ATOM
      1 N         143.6042  142.1440  163.6547 N.3     1  UNL1       -0.2711
      2 C         142.7940  142.7540  164.7600 C.3     1  UNL1        0.0735
      3 C         142.0183  144.0140  164.5139 C.3     1  UNL1        0.0331
      4 C         142.0528  144.6640  163.1625 C.3     1  UNL1        0.0570
      5 C         142.8630  144.0541  162.0573 C.3     1  UNL1        0.0331
      6 C         143.6387  142.7941  162.3034 C.3     1  UNL1        0.0735
      7 N         141.2770  145.9241  162.9164 N.3     1  UNL1       -0.2934
      8 H         141.8005  146.4620  162.2257 H       1  UNL1        0.1236
      9 C         139.8617  145.8496  162.4251 C.3     1  UNL1        0.1152
     10 C         139.2008  144.5157  162.2415 C.ar    1  UNL1        0.0765
     11 C         138.4244  143.9019  163.3686 C.ar    1  UNL1        0.0193
     12 C         137.7634  142.5679  163.1850 C.ar    1  UNL1        0.0411
     13 C         137.8789  141.8478  161.8743 C.ar    1  UNL1        0.1708
     14 C         138.6553  142.4616  160.7471 C.ar    1  UNL1        0.1682
     15 N         139.3163  143.7955  160.9308 N.ar    1  UNL1       -0.2304
     16 N         138.7708  141.7415  159.4364 N.am    1  UNL1       -0.2639
     17 C         138.1098  140.4075  159.2528 C.2     1  UNL1        0.2718
     18 O         138.2253  139.6873  157.9421 O.2     1  UNL1       -0.2707
     19 C         137.3334  139.7937  160.3799 C.3     1  UNL1        0.2898
     20 O         137.2179  140.5139  161.6907 O.3     1  UNL1       -0.4628
     21 H         139.2804  142.1443  158.6966 H       1  UNL1        0.1565
     22 C         144.3800  140.8840  163.9009 C.3     1  UNL1        0.0942
     23 C         143.7324  139.7308  164.6085 C.3     1  UNL1        0.1155
     24 C         139.7662  140.1787  166.6865 C.ar    1  UNL1        0.1400
     25 C         138.5399  139.5369  166.1084 C.ar    1  UNL1        0.0367
     26 C         138.6357  138.7459  164.8375 C.ar    1  UNL1        0.0001
     27 C         139.9577  138.5966  164.1448 C.ar    1  UNL1       -0.0078
     28 C         141.1840  139.2383  164.7230 C.ar    1  UNL1        0.0529
     29 C         141.0882  140.0294  165.9939 C.ar    1  UNL1        0.0515
     30 N         142.5062  139.0890  164.0304 N.am    1  UNL1       -0.2574
     31 C         142.6019  138.2980  162.7595 C.2     1  UNL1        0.2297
     32 O         143.9240  138.1486  162.0668 O.2     1  UNL1       -0.2745
     33 C         141.3755  137.6562  162.1813 C.3     1  UNL1        0.0903
     34 C         140.0535  137.8055  162.8740 C.3     1  UNL1        0.0372
     35 C         139.4746  140.2647  169.2668 C.3     1  UNL1        0.2525
     36 O         139.6704  140.9697  167.9574 O.3     1  UNL1       -0.4714
@<TRIPOS>BOND
     1    35    36    1
     2    36    24    1
     3    24    25   ar
     4    25    26   ar
     5    26    27   ar
     6    27    28   ar
     7    28    29   ar
     8    28    30    1
     9    30    23    1
    10    23    22    1
    11    22     1    1
    12     1     2    1
    13     2     3    1
    14     3     4    1
    15     4     7    1
    16     7     9    1
    17     9    10    1
    18    10    11   ar
    19    11    12   ar
    20    12    13   ar
    21    13    14   ar
    22    14    15   ar
    23    14    16    1
    24    16    17   am
    25    17    18    2
    26    17    19    1
    27    19    20    1
    28     4     5    1
    29     5     6    1
    30    30    31   am
    31    31    32    2
    32    31    33    1
    33    33    34    1
    34    29    24   ar
    35     6     1    1
    36    34    27    1
    37    15    10   ar
    38    20    13    1
    39     7     8    1
    40    16    21    1
@<TRIPOS>MOLECULE
*****
 36 40 0 0 0
SMALL
GASTEIGER

@<TRIPOS>ATOM
      1 N         138.1027  140.1032  162.5356 N.3     1  UNL1       -0.2711
      2 C         137.8421  140.8255  163.8242 C.3     1  UNL1        0.0735
      3 C         137.7124  142.3198  163.8334 C.3     1  UNL1        0.0331
      4 C         137.8432  143.0919  162.5541 C.3     1  UNL1        0.0570
      5 C         138.1039  142.3696  161.2655 C.3     1  UNL1        0.0331
      6 C         138.2336  140.8753  161.2562 C.3     1  UNL1        0.0735
      7 N         137.7135  144.5863  162.5633 N.3     1  UNL1       -0.2934
      8 H         137.1146  144.8250  163.3537 H       1  UNL1        0.1236
      9 C         138.9386  145.4448  162.6735 C.3     1  UNL1        0.1152
     10 C         140.2984  144.8119  162.6952 C.ar    1  UNL1        0.0765
     11 C         140.9715  144.5255  164.0047 C.ar    1  UNL1        0.0193
     12 C         142.3313  143.8926  164.0264 C.ar    1  UNL1        0.0411
     13 C         143.0180  143.5463  162.7386 C.ar    1  UNL1        0.1708
     14 C         142.3449  143.8328  161.4290 C.ar    1  UNL1        0.1682
     15 N         140.9851  144.4656  161.4073 N.ar    1  UNL1       -0.2304
     16 N         143.0316  143.4865  160.1412 N.am    1  UNL1       -0.2639
     17 C         144.3914  142.8536  160.1629 C.2     1  UNL1        0.2718
     18 O         145.0781  142.5073  158.8751 O.2     1  UNL1       -0.2707
     19 C         145.0645  142.5672  161.4724 C.3     1  UNL1        0.2898
     20 O         144.3778  142.9135  162.7603 O.3     1  UNL1       -0.4628
     21 H         142.5898  143.6745  159.2817 H       1  UNL1        0.1565
     22 C         138.2324  138.6088  162.5263 C.3     1  UNL1        0.0942
     23 C         138.9663  137.9129  163.6341 C.3     1  UNL1        0.1155
     24 C         140.0299  139.6316  167.6546 C.ar    1  UNL1        0.1400
     25 C         141.4513  140.0005  167.9603 C.ar    1  UNL1        0.0367
     26 C         142.5182  139.7965  166.9258 C.ar    1  UNL1        0.0001
     27 C         142.1637  139.2237  165.5856 C.ar    1  UNL1       -0.0078
     28 C         140.7423  138.8547  165.2800 C.ar    1  UNL1        0.0529
     29 C         139.6754  139.0587  166.3145 C.ar    1  UNL1        0.0515
     30 N         140.3877  138.2818  163.9397 N.am    1  UNL1       -0.2574
     31 C         141.4546  138.0779  162.9053 C.2     1  UNL1        0.2297
     32 O         141.1001  137.5050  161.5651 O.2     1  UNL1       -0.2745
     33 C         142.8761  138.4468  163.2110 C.3     1  UNL1        0.0903
     34 C         143.2306  139.0197  164.5511 C.3     1  UNL1        0.0372
     35 C         139.2240  140.7215  169.8710 C.3     1  UNL1        0.2525
     36 O         138.9631  139.8355  168.6891 O.3     1  UNL1       -0.4714
@<TRIPOS>BOND
     1    35    36    1
     2    36    24    1
     3    24    25   ar
     4    25    26   ar
     5    26    27   ar
     6    27    28   ar
     7    28    29   ar
     8    28    30    1
     9    30    23    1
    10    23    22    1
    11    22     1    1
    12     1     2    1
    13     2     3    1
    14     3     4    1
    15     4     7    1
    16     7     9    1
    17     9    10    1
    18    10    11   ar
    19    11    12   ar
    20    12    13   ar
    21    13    14   ar
    22    14    15   ar
    23    14    16    1
    24    16    17   am
    25    17    18    2
    26    17    19    1
    27    19    20    1
    28     4     5    1
    29     5     6    1
    30    30    31   am
    31    31    32    2
    32    31    33    1
    33    33    34    1
    34    29    24   ar
    35     6     1    1
    36    34    27    1
    37    15    10   ar
    38    20    13    1
    39     7     8    1
    40    16    21    1
@<TRIPOS>MOLECULE
*****
 36 40 0 0 0
SMALL
GASTEIGER

@<TRIPOS>ATOM
      1 N         142.6895  143.3467  161.4379 N.3     1  UNL1       -0.2711
      2 C         143.0735  144.2096  162.6032 C.3     1  UNL1        0.0735
      3 C         142.0098  144.8382  163.4536 C.3     1  UNL1        0.0331
      4 C         140.5621  144.6038  163.1388 C.3     1  UNL1        0.0570
      5 C         140.1781  143.7409  161.9735 C.3     1  UNL1        0.0331
      6 C         141.2418  143.1123  161.1231 C.3     1  UNL1        0.0735
      7 N         139.4983  145.2324  163.9893 N.3     1  UNL1       -0.2934
      8 H         138.7758  145.5717  163.3542 H       1  UNL1        0.1236
      9 C         138.8031  144.4211  165.0421 C.3     1  UNL1        0.1152
     10 C         139.4408  143.1689  165.5668 C.ar    1  UNL1        0.0765
     11 C         139.1107  141.8431  164.9477 C.ar    1  UNL1        0.0193
     12 C         139.7484  140.5908  165.4724 C.ar    1  UNL1        0.0411
     13 C         140.7161  140.6644  166.6161 C.ar    1  UNL1        0.1708
     14 C         141.0462  141.9903  167.2351 C.ar    1  UNL1        0.1682
     15 N         140.4085  143.2425  166.7105 N.ar    1  UNL1       -0.2304
     16 N         142.0139  142.0639  168.3788 N.am    1  UNL1       -0.2639
     17 C         142.6516  140.8116  168.9035 C.2     1  UNL1        0.2718
     18 O         143.6194  140.8852  170.0472 O.2     1  UNL1       -0.2707
     19 C         142.3216  139.4858  168.2845 C.3     1  UNL1        0.2898
     20 O         141.3538  139.4122  167.1408 O.3     1  UNL1       -0.4628
     21 H         142.2306  142.9341  168.7851 H       1  UNL1        0.1565
     22 C         143.7534  142.7181  160.5874 C.3     1  UNL1        0.0942
     23 C         143.9918  141.2388  160.6562 C.3     1  UNL1        0.1155
     24 C         140.6257  138.3627  161.4609 C.ar    1  UNL1        0.1400
     25 C         140.5464  137.6508  162.7788 C.ar    1  UNL1        0.0367
     26 C         141.5892  137.8975  163.8284 C.ar    1  UNL1        0.0001
     27 C         142.7113  138.8561  163.5602 C.ar    1  UNL1       -0.0078
     28 C         142.7905  139.5681  162.2423 C.ar    1  UNL1        0.0529
     29 C         141.7477  139.3214  161.1927 C.ar    1  UNL1        0.0515
     30 N         143.9125  140.5268  161.9740 N.am    1  UNL1       -0.2574
     31 C         144.9553  140.7735  163.0237 C.2     1  UNL1        0.2297
     32 O         146.0774  141.7322  162.7554 O.2     1  UNL1       -0.2745
     33 C         144.8761  140.0615  164.3416 C.3     1  UNL1        0.0903
     34 C         143.7541  139.1028  164.6098 C.3     1  UNL1        0.0372
     35 C         139.1067  139.2457  159.5471 C.3     1  UNL1        0.2525
     36 O         139.5829  138.1160  160.4113 O.3     1  UNL1       -0.4714
@<TRIPOS>BOND
     1    35    36    1
     2    36    24    1
     3    24    25   ar
     4    25    26   ar
     5    26    27   ar
     6    27    28   ar
     7    28    29   ar
     8    28    30    1
     9    30    23    1
    10    23    22    1
    11    22     1    1
    12     1     2    1
    13     2     3    1
    14     3     4    1
    15     4     7    1
    16     7     9    1
    17     9    10    1
    18    10    11   ar
    19    11    12   ar
    20    12    13   ar
    21    13    14   ar
    22    14    15   ar
    23    14    16    1
    24    16    17   am
    25    17    18    2
    26    17    19    1
    27    19    20    1
    28     4     5    1
    29     5     6    1
    30    30    31   am
    31    31    32    2
    32    31    33    1
    33    33    34    1
    34    29    24   ar
    35     6     1    1
    36    34    27    1
    37    15    10   ar
    38    20    13    1
    39     7     8    1
    40    16    21    1
@<TRIPOS>MOLECULE
*****
 36 40 0 0 0
SMALL
GASTEIGER

@<TRIPOS>ATOM
      1 N         141.7245  138.2162  163.9438 N.3     1  UNL1       -0.2711
      2 C         142.5010  138.8334  165.0690 C.3     1  UNL1        0.0735
      3 C         143.7507  139.6110  164.7800 C.3     1  UNL1        0.0331
      4 C         144.2238  139.7714  163.3656 C.3     1  UNL1        0.0570
      5 C         143.4473  139.1542  162.2404 C.3     1  UNL1        0.0331
      6 C         142.1977  138.3766  162.5295 C.3     1  UNL1        0.0735
      7 N         145.4736  140.5490  163.0765 N.3     1  UNL1       -0.2934
      8 H         145.8756  140.1547  162.2260 H       1  UNL1        0.1236
      9 C         145.4032  142.0337  162.8742 C.3     1  UNL1        0.1152
     10 C         144.4199  142.6121  161.9003 C.ar    1  UNL1        0.0765
     11 C         144.5097  142.2594  160.4451 C.ar    1  UNL1        0.0193
     12 C         143.5265  142.8379  159.4711 C.ar    1  UNL1        0.0411
     13 C         142.4534  143.7690  159.9523 C.ar    1  UNL1        0.1708
     14 C         142.3636  144.1216  161.4075 C.ar    1  UNL1        0.1682
     15 N         143.3468  143.5432  162.3815 N.ar    1  UNL1       -0.2304
     16 N         141.2905  145.0527  161.8887 N.am    1  UNL1       -0.2639
     17 C         140.3072  145.6311  160.9147 C.2     1  UNL1        0.2718
     18 O         139.2342  146.5622  161.3959 O.2     1  UNL1       -0.2707
     19 C         140.3971  145.2785  159.4596 C.3     1  UNL1        0.2898
     20 O         141.4701  144.3474  158.9784 O.3     1  UNL1       -0.4628
     21 H         141.2316  145.2842  162.8438 H       1  UNL1        0.1565
     22 C         140.4748  137.4386  164.2330 C.3     1  UNL1        0.0942
     23 C         139.2148  138.1582  164.6133 C.3     1  UNL1        0.1155
     24 C         140.0992  142.1777  166.4330 C.ar    1  UNL1        0.1400
     25 C         139.7042  143.4313  165.7104 C.ar    1  UNL1        0.0367
     26 C         139.0144  143.3452  164.3812 C.ar    1  UNL1        0.0001
     27 C         138.7196  142.0054  163.7747 C.ar    1  UNL1       -0.0078
     28 C         139.1146  140.7517  164.4973 C.ar    1  UNL1        0.0529
     29 C         139.8044  140.8379  165.8265 C.ar    1  UNL1        0.0515
     30 N         138.8198  139.4118  163.8907 N.am    1  UNL1       -0.2574
     31 C         138.1300  139.3257  162.5615 C.2     1  UNL1        0.2297
     32 O         137.8352  137.9859  161.9550 O.2     1  UNL1       -0.2745
     33 C         137.7349  140.5795  161.8389 C.3     1  UNL1        0.0903
     34 C         138.0298  141.9193  162.4455 C.3     1  UNL1        0.0372
     35 C         142.2846  142.1780  167.8380 C.3     1  UNL1        0.2525
     36 O         140.7891  142.2638  167.7622 O.3     1  UNL1       -0.4714
@<TRIPOS>BOND
     1    35    36    1
     2    36    24    1
     3    24    25   ar
     4    25    26   ar
     5    26    27   ar
     6    27    28   ar
     7    28    29   ar
     8    28    30    1
     9    30    23    1
    10    23    22    1
    11    22     1    1
    12     1     2    1
    13     2     3    1
    14     3     4    1
    15     4     7    1
    16     7     9    1
    17     9    10    1
    18    10    11   ar
    19    11    12   ar
    20    12    13   ar
    21    13    14   ar
    22    14    15   ar
    23    14    16    1
    24    16    17   am
    25    17    18    2
    26    17    19    1
    27    19    20    1
    28     4     5    1
    29     5     6    1
    30    30    31   am
    31    31    32    2
    32    31    33    1
    33    33    34    1
    34    29    24   ar
    35     6     1    1
    36    34    27    1
    37    15    10   ar
    38    20    13    1
    39     7     8    1
    40    16    21    1
