@<TRIPOS>MOLECULE
*****
 35 38 0 0 0
SMALL
GASTEIGER

@<TRIPOS>ATOM
      1 C         140.5004  142.7971  160.5334 C.3     1  UNL1        0.0604
      2 C         140.1631  142.2952  159.1607 C.3     1  UNL1        0.0352
      3 C         140.1682  143.2391  157.9948 C.3     1  UNL1        0.0985
      4 N         140.5106  144.6847  158.2017 N.3     1  UNL1       -0.1427
      5 C         140.8479  145.1866  159.5745 C.3     1  UNL1        0.0985
      6 C         140.8428  144.2428  160.7403 C.3     1  UNL1        0.0352
      7 C         140.4850  139.9657  164.0310 C.3     1  UNL1        0.1687
      8 C         139.4725  141.0698  163.9554 C.3     1  UNL1        0.0609
      9 C         139.4776  142.0136  162.7895 C.3     1  UNL1        0.0758
     10 N         140.4953  141.8533  161.6993 N.3     1  UNL1       -0.2736
     11 C         141.5078  140.7492  161.7749 C.3     1  UNL1        0.0758
     12 C         141.5027  139.8054  162.9407 C.3     1  UNL1        0.0609
     13 O         140.4799  139.0219  165.1968 O.3     1  UNL1       -0.4782
     14 C         138.8286  140.3271  169.9476 C.3     1  UNL1        0.0329
     15 C         139.9422  140.1860  168.9526 C.ar    1  UNL1        0.0023
     16 C         141.3436  140.5566  169.3379 C.ar    1  UNL1        0.0547
     17 CL        141.6316  141.0681  170.7183 Cl      1  UNL1       -0.0825
     18 C         142.4572  140.4155  168.3429 C.ar    1  UNL1        0.0142
     19 C         142.1693  139.9040  166.9626 C.ar    1  UNL1        0.0386
     20 C         140.7679  139.5335  166.5772 C.ar    1  UNL1        0.1485
     21 C         139.6543  139.6745  167.5722 C.ar    1  UNL1        0.0884
     22 CL        138.2527  139.3040  167.1868 Cl      1  UNL1       -0.0794
     23 S         140.5157  145.6285  157.0359 S.O2    1  UNL1        0.1153
     24 O         141.7492  146.2891  157.5761 O.2     1  UNL1       -0.1378
     25 O         139.2821  144.9679  156.4957 O.2     1  UNL1       -0.1378
     26 N         140.5208  146.5724  155.8701 N.am    1  UNL1       -0.1714
     27 C         139.6597  147.8003  155.8954 C.2     1  UNL1        0.2651
     28 O         138.7934  148.0844  157.0865 O.2     1  UNL1       -0.2685
     29 H         141.0894  146.3859  155.0883 H       1  UNL1        0.1779
     30 C         139.6648  148.7441  154.7295 C.ar    1  UNL1        0.0549
     31 C         140.2018  148.2946  153.4030 C.ar    1  UNL1        0.0046
     32 C         140.2070  149.2384  152.2372 C.ar    1  UNL1        0.0001
     33 C         139.6752  150.6317  152.3978 C.ar    1  UNL1        0.0000
     34 C         139.1382  151.0812  153.7243 C.ar    1  UNL1        0.0001
     35 C         139.1330  150.1374  154.8902 C.ar    1  UNL1        0.0046
@<TRIPOS>BOND
     1    14    15    1
     2    15    16   ar
     3    16    17    1
     4    16    18   ar
     5    18    19   ar
     6    19    20   ar
     7    20    13    1
     8    13     7    1
     9     7     8    1
    10     8     9    1
    11     9    10    1
    12    10     1    1
    13     1     2    1
    14     2     3    1
    15     3     4    1
    16     4    23    1
    17    23    24    2
    18    23    25    2
    19    23    26    1
    20    26    27   am
    21    27    28    2
    22    27    30    1
    23    30    31   ar
    24    31    32   ar
    25    32    33   ar
    26    33    34   ar
    27    34    35   ar
    28     4     5    1
    29     5     6    1
    30    10    11    1
    31    11    12    1
    32    20    21   ar
    33    21    22    1
    34    21    15   ar
    35    12     7    1
    36     6     1    1
    37    35    30   ar
    38    26    29    1
@<TRIPOS>MOLECULE
*****
 35 38 0 0 0
SMALL
GASTEIGER

@<TRIPOS>ATOM
      1 C         140.6547  138.3333  157.5790 C.3     1  UNL1        0.0604
      2 C         142.0132  137.8435  157.9847 C.3     1  UNL1        0.0352
      3 C         142.6232  136.6624  157.2897 C.3     1  UNL1        0.0985
      4 N         141.8746  135.9711  156.1889 N.3     1  UNL1       -0.1427
      5 C         140.5161  136.4608  155.7832 C.3     1  UNL1        0.0985
      6 C         139.9061  137.6419  156.4782 C.3     1  UNL1        0.0352
      7 C         138.8248  141.8764  159.6641 C.3     1  UNL1        0.1687
      8 C         138.6104  140.4942  160.2060 C.3     1  UNL1        0.0609
      9 C         139.2204  139.3132  159.5109 C.3     1  UNL1        0.0758
     10 N         140.0448  139.5143  158.2740 N.3     1  UNL1       -0.2736
     11 C         140.2592  140.8965  157.7322 C.3     1  UNL1        0.0758
     12 C         139.6493  142.0775  158.4272 C.3     1  UNL1        0.0609
     13 O         138.2149  143.0574  160.3591 O.3     1  UNL1       -0.4782
     14 C         141.3530  145.0897  163.9677 C.3     1  UNL1        0.0329
     15 C         140.1037  144.3436  163.6039 C.ar    1  UNL1        0.0023
     16 C         139.1740  143.8674  164.6804 C.ar    1  UNL1        0.0547
     17 CL        139.4937  144.1374  166.1209 Cl      1  UNL1       -0.0825
     18 C         137.9247  143.1213  164.3166 C.ar    1  UNL1        0.0142
     19 C         137.6050  142.8513  162.8762 C.ar    1  UNL1        0.0386
     20 C         138.5346  143.3274  161.7996 C.ar    1  UNL1        0.1485
     21 C         139.7839  144.0736  162.1635 C.ar    1  UNL1        0.0884
     22 CL        140.7136  144.5497  161.0868 Cl      1  UNL1       -0.0794
     23 S         142.4845  134.7901  155.4939 S.O2    1  UNL1        0.1153
     24 O         141.1315  134.3918  154.9834 O.2     1  UNL1       -0.1378
     25 O         143.8375  135.1884  156.0045 O.2     1  UNL1       -0.1378
     26 N         143.0945  133.6090  154.7989 N.am    1  UNL1       -0.1714
     27 C         143.1337  132.2744  155.4825 C.2     1  UNL1        0.2651
     28 O         142.5630  132.1209  156.8612 O.2     1  UNL1       -0.2685
     29 H         143.4690  133.7097  153.8940 H       1  UNL1        0.1779
     30 C         143.7436  131.0933  154.7874 C.ar    1  UNL1        0.0549
     31 C         143.5474  130.9078  153.3119 C.ar    1  UNL1        0.0046
     32 C         144.1573  129.7268  152.6169 C.ar    1  UNL1        0.0001
     33 C         144.9634  128.7312  153.3973 C.ar    1  UNL1        0.0000
     34 C         145.1596  128.9167  154.8728 C.ar    1  UNL1        0.0001
     35 C         144.5497  130.0978  155.5679 C.ar    1  UNL1        0.0046
@<TRIPOS>BOND
     1    14    15    1
     2    15    16   ar
     3    16    17    1
     4    16    18   ar
     5    18    19   ar
     6    19    20   ar
     7    20    13    1
     8    13     7    1
     9     7     8    1
    10     8     9    1
    11     9    10    1
    12    10     1    1
    13     1     2    1
    14     2     3    1
    15     3     4    1
    16     4    23    1
    17    23    24    2
    18    23    25    2
    19    23    26    1
    20    26    27   am
    21    27    28    2
    22    27    30    1
    23    30    31   ar
    24    31    32   ar
    25    32    33   ar
    26    33    34   ar
    27    34    35   ar
    28     4     5    1
    29     5     6    1
    30    10    11    1
    31    11    12    1
    32    20    21   ar
    33    21    22    1
    34    21    15   ar
    35    12     7    1
    36     6     1    1
    37    35    30   ar
    38    26    29    1
@<TRIPOS>MOLECULE
*****
 35 38 0 0 0
SMALL
GASTEIGER

@<TRIPOS>ATOM
      1 C         142.8227  137.8106  160.1228 C.3     1  UNL1        0.0604
      2 C         143.8384  137.7853  161.2263 C.3     1  UNL1        0.0352
      3 C         143.6605  138.6630  162.4297 C.3     1  UNL1        0.0985
      4 N         142.4669  139.5659  162.5296 N.3     1  UNL1       -0.1427
      5 C         141.4511  139.5912  161.4261 C.3     1  UNL1        0.0985
      6 C         141.6290  138.7136  160.2227 C.3     1  UNL1        0.0352
      7 C         143.3564  135.1778  156.5126 C.3     1  UNL1        0.1687
      8 C         142.9715  136.6174  156.3407 C.3     1  UNL1        0.0609
      9 C         142.7937  137.4950  157.5442 C.3     1  UNL1        0.0758
     10 N         143.0006  136.9330  158.9194 N.3     1  UNL1       -0.2736
     11 C         143.3854  135.4934  159.0913 C.3     1  UNL1        0.0758
     12 C         143.5633  134.6158  157.8879 C.3     1  UNL1        0.0609
     13 O         143.5343  134.3002  155.3092 O.3     1  UNL1       -0.4782
     14 C         143.6082  129.1472  155.9738 C.3     1  UNL1        0.0329
     15 C         142.8785  130.3950  155.5732 C.ar    1  UNL1        0.0023
     16 C         141.4559  130.3142  155.1044 C.ar    1  UNL1        0.0547
     17 CL        140.7631  128.9854  155.0361 Cl      1  UNL1       -0.0825
     18 C         140.7262  131.5620  154.7038 C.ar    1  UNL1        0.0142
     19 C         141.4189  132.8906  154.7721 C.ar    1  UNL1        0.0386
     20 C         142.8414  132.9715  155.2409 C.ar    1  UNL1        0.1485
     21 C         143.5712  131.7237  155.6415 C.ar    1  UNL1        0.0884
     22 CL        144.9938  131.8046  156.1104 Cl      1  UNL1       -0.0794
     23 S         142.2890  140.4435  163.7329 S.O2    1  UNL1        0.1153
     24 O         140.8067  140.2205  163.6764 O.2     1  UNL1       -0.1378
     25 O         143.7712  140.6665  163.7894 O.2     1  UNL1       -0.1378
     26 N         142.1110  141.3211  164.9363 N.am    1  UNL1       -0.1714
     27 C         142.0889  140.7165  166.3089 C.2     1  UNL1        0.2651
     28 O         142.2448  139.2342  166.4781 O.2     1  UNL1       -0.2685
     29 H         142.0087  142.2940  164.8253 H       1  UNL1        0.1779
     30 C         141.9110  141.5941  167.5123 C.ar    1  UNL1        0.0549
     31 C         143.0239  141.7364  168.5079 C.ar    1  UNL1        0.0046
     32 C         142.8460  142.6140  169.7113 C.ar    1  UNL1        0.0001
     33 C         141.5552  143.3493  169.9190 C.ar    1  UNL1        0.0000
     34 C         140.4423  143.2070  168.9234 C.ar    1  UNL1        0.0001
     35 C         140.6202  142.3294  167.7201 C.ar    1  UNL1        0.0046
@<TRIPOS>BOND
     1    14    15    1
     2    15    16   ar
     3    16    17    1
     4    16    18   ar
     5    18    19   ar
     6    19    20   ar
     7    20    13    1
     8    13     7    1
     9     7     8    1
    10     8     9    1
    11     9    10    1
    12    10     1    1
    13     1     2    1
    14     2     3    1
    15     3     4    1
    16     4    23    1
    17    23    24    2
    18    23    25    2
    19    23    26    1
    20    26    27   am
    21    27    28    2
    22    27    30    1
    23    30    31   ar
    24    31    32   ar
    25    32    33   ar
    26    33    34   ar
    27    34    35   ar
    28     4     5    1
    29     5     6    1
    30    10    11    1
    31    11    12    1
    32    20    21   ar
    33    21    22    1
    34    21    15   ar
    35    12     7    1
    36     6     1    1
    37    35    30   ar
    38    26    29    1
@<TRIPOS>MOLECULE
*****
 35 38 0 0 0
SMALL
GASTEIGER

@<TRIPOS>ATOM
      1 C         141.2724  143.9817  160.0752 C.3     1  UNL1        0.0604
      2 C         142.6741  143.5195  160.3430 C.3     1  UNL1        0.0352
      3 C         143.0282  142.9323  161.6772 C.3     1  UNL1        0.0985
      4 N         141.9807  142.8074  162.7435 N.3     1  UNL1       -0.1427
      5 C         140.5790  143.2696  162.4757 C.3     1  UNL1        0.0985
      6 C         140.2249  143.8567  161.1416 C.3     1  UNL1        0.0352
      7 C         140.2100  145.7431  156.0729 C.3     1  UNL1        0.1687
      8 C         141.4232  146.2302  156.8085 C.3     1  UNL1        0.0609
      9 C         141.7773  145.6430  158.1427 C.3     1  UNL1        0.0758
     10 N         140.9183  144.5688  158.7412 N.3     1  UNL1       -0.2736
     11 C         139.7052  144.0817  158.0056 C.3     1  UNL1        0.0758
     12 C         139.3510  144.6689  156.6715 C.3     1  UNL1        0.0609
     13 O         139.8559  146.3302  154.7388 O.3     1  UNL1       -0.4782
     14 C         140.5847  150.7545  152.1130 C.3     1  UNL1        0.0329
     15 C         140.0108  150.0214  153.2891 C.ar    1  UNL1        0.0023
     16 C         139.2276  150.7672  154.3284 C.ar    1  UNL1        0.0547
     17 CL        139.0181  152.2462  154.1917 Cl      1  UNL1       -0.0825
     18 C         138.6537  150.0341  155.5045 C.ar    1  UNL1        0.0142
     19 C         138.8632  148.5551  155.6414 C.ar    1  UNL1        0.0386
     20 C         139.6464  147.8093  154.6021 C.ar    1  UNL1        0.1485
     21 C         140.2203  148.5424  153.4260 C.ar    1  UNL1        0.0884
     22 CL        141.0036  147.7965  152.3866 Cl      1  UNL1       -0.0794
     23 S         142.3348  142.2203  164.0776 S.O2    1  UNL1        0.1153
     24 O         141.5461  140.9886  163.7449 O.2     1  UNL1       -0.1378
     25 O         143.1236  143.4520  164.4103 O.2     1  UNL1       -0.1378
     26 N         142.6890  141.6331  165.4117 N.am    1  UNL1       -0.1714
     27 C         141.8094  141.8865  166.6000 C.2     1  UNL1        0.2651
     28 O         140.5756  142.7271  166.4542 O.2     1  UNL1       -0.2685
     29 H         143.4987  141.0814  165.5074 H       1  UNL1        0.1779
     30 C         142.1635  141.2993  167.9342 C.ar    1  UNL1        0.0549
     31 C         141.5841  139.9798  168.3504 C.ar    1  UNL1        0.0046
     32 C         141.9382  139.3926  169.6845 C.ar    1  UNL1        0.0001
     33 C         142.8717  140.1249  170.6023 C.ar    1  UNL1        0.0000
     34 C         143.4511  141.4444  170.1860 C.ar    1  UNL1        0.0001
     35 C         143.0970  142.0316  168.8519 C.ar    1  UNL1        0.0046
@<TRIPOS>BOND
     1    14    15    1
     2    15    16   ar
     3    16    17    1
     4    16    18   ar
     5    18    19   ar
     6    19    20   ar
     7    20    13    1
     8    13     7    1
     9     7     8    1
    10     8     9    1
    11     9    10    1
    12    10     1    1
    13     1     2    1
    14     2     3    1
    15     3     4    1
    16     4    23    1
    17    23    24    2
    18    23    25    2
    19    23    26    1
    20    26    27   am
    21    27    28    2
    22    27    30    1
    23    30    31   ar
    24    31    32   ar
    25    32    33   ar
    26    33    34   ar
    27    34    35   ar
    28     4     5    1
    29     5     6    1
    30    10    11    1
    31    11    12    1
    32    20    21   ar
    33    21    22    1
    34    21    15   ar
    35    12     7    1
    36     6     1    1
    37    35    30   ar
    38    26    29    1
@<TRIPOS>MOLECULE
*****
 35 38 0 0 0
SMALL
GASTEIGER

@<TRIPOS>ATOM
      1 C         141.1859  138.8685  160.0811 C.3     1  UNL1        0.0604
      2 C         142.0515  140.0589  160.3702 C.3     1  UNL1        0.0352
      3 C         141.9609  140.7468  161.7002 C.3     1  UNL1        0.0985
      4 N         141.0047  140.2442  162.7409 N.3     1  UNL1       -0.1427
      5 C         140.1391  139.0538  162.4518 C.3     1  UNL1        0.0985
      6 C         140.2297  138.3659  161.1219 C.3     1  UNL1        0.0352
      7 C         141.4574  136.8049  156.0914 C.3     1  UNL1        0.1687
      8 C         140.1382  137.3283  156.5768 C.3     1  UNL1        0.0609
      9 C         140.0477  138.0162  157.9067 C.3     1  UNL1        0.0758
     10 N         141.2764  138.1806  158.7512 N.3     1  UNL1       -0.2736
     11 C         142.5956  137.6571  158.2658 C.3     1  UNL1        0.0758
     12 C         142.6862  136.9693  156.9360 C.3     1  UNL1        0.0609
     13 O         141.5480  136.1170  154.7615 O.3     1  UNL1       -0.4782
     14 C         142.3837  131.8160  151.9682 C.3     1  UNL1        0.0329
     15 C         142.2621  132.4975  153.2989 C.ar    1  UNL1        0.0023
     16 C         142.4367  131.7101  154.5635 C.ar    1  UNL1        0.0547
     17 CL        142.7329  130.2411  154.4976 Cl      1  UNL1       -0.0825
     18 C         142.3151  132.3916  155.8942 C.ar    1  UNL1        0.0142
     19 C         142.0188  133.8606  155.9602 C.ar    1  UNL1        0.0386
     20 C         141.8442  134.6480  154.6956 C.ar    1  UNL1        0.1485
     21 C         141.9658  133.9664  153.3649 C.ar    1  UNL1        0.0884
     22 CL        141.7912  134.7539  152.1002 Cl      1  UNL1       -0.0794
     23 S         140.9142  140.9321  164.0708 S.O2    1  UNL1        0.1153
     24 O         141.6229  142.1253  163.5018 O.2     1  UNL1       -0.1378
     25 O         140.2055  139.7388  164.6397 O.2     1  UNL1       -0.1378
     26 N         140.8237  141.6200  165.4007 N.am    1  UNL1       -0.1714
     27 C         141.9252  141.4573  166.4058 C.2     1  UNL1        0.2651
     28 O         143.1173  140.6068  166.0810 O.2     1  UNL1       -0.2685
     29 H         140.0413  142.1783  165.6139 H       1  UNL1        0.1779
     30 C         141.8347  142.1453  167.7357 C.ar    1  UNL1        0.0549
     31 C         140.5675  142.8414  168.1353 C.ar    1  UNL1        0.0046
     32 C         140.4769  143.5293  169.4651 C.ar    1  UNL1        0.0001
     33 C         141.6535  143.5211  170.3954 C.ar    1  UNL1        0.0000
     34 C         142.9207  142.8250  169.9958 C.ar    1  UNL1        0.0001
     35 C         143.0113  142.1371  168.6659 C.ar    1  UNL1        0.0046
@<TRIPOS>BOND
     1    14    15    1
     2    15    16   ar
     3    16    17    1
     4    16    18   ar
     5    18    19   ar
     6    19    20   ar
     7    20    13    1
     8    13     7    1
     9     7     8    1
    10     8     9    1
    11     9    10    1
    12    10     1    1
    13     1     2    1
    14     2     3    1
    15     3     4    1
    16     4    23    1
    17    23    24    2
    18    23    25    2
    19    23    26    1
    20    26    27   am
    21    27    28    2
    22    27    30    1
    23    30    31   ar
    24    31    32   ar
    25    32    33   ar
    26    33    34   ar
    27    34    35   ar
    28     4     5    1
    29     5     6    1
    30    10    11    1
    31    11    12    1
    32    20    21   ar
    33    21    22    1
    34    21    15   ar
    35    12     7    1
    36     6     1    1
    37    35    30   ar
    38    26    29    1
@<TRIPOS>MOLECULE
*****
 35 38 0 0 0
SMALL
GASTEIGER

@<TRIPOS>ATOM
      1 C         140.9109  138.7855  159.6104 C.3     1  UNL1        0.0604
      2 C         139.5942  138.4287  160.2342 C.3     1  UNL1        0.0352
      3 C         139.2639  138.9104  161.6158 C.3     1  UNL1        0.0985
      4 N         140.2501  139.7489  162.3736 N.3     1  UNL1       -0.1427
      5 C         141.5668  140.1057  161.7498 C.3     1  UNL1        0.0985
      6 C         141.8972  139.6240  160.3682 C.3     1  UNL1        0.0352
      7 C         141.9021  137.3406  155.4656 C.3     1  UNL1        0.1687
      8 C         142.9543  138.0121  156.2974 C.3     1  UNL1        0.0609
      9 C         142.6239  138.4937  157.6790 C.3     1  UNL1        0.0758
     10 N         141.2413  138.3039  158.2288 N.3     1  UNL1       -0.2736
     11 C         140.1890  137.6324  157.3970 C.3     1  UNL1        0.0758
     12 C         140.5194  137.1507  156.0154 C.3     1  UNL1        0.0609
     13 O         142.2325  136.8589  154.0840 O.3     1  UNL1       -0.4782
     14 C         142.9675  131.7340  154.5256 C.3     1  UNL1        0.0329
     15 C         142.2553  132.8948  153.8968 C.ar    1  UNL1        0.0023
     16 C         141.1985  132.6539  152.8599 C.ar    1  UNL1        0.0547
     17 CL        140.8538  131.2521  152.4518 Cl      1  UNL1       -0.0825
     18 C         140.4864  133.8146  152.2311 C.ar    1  UNL1        0.0142
     19 C         140.8310  135.2163  152.6391 C.ar    1  UNL1        0.0386
     20 C         141.8878  135.4572  153.6759 C.ar    1  UNL1        0.1485
     21 C         142.6000  134.2964  154.3048 C.ar    1  UNL1        0.0884
     22 CL        143.6568  134.5374  155.3417 Cl      1  UNL1       -0.0794
     23 S         139.9197  140.2305  163.7552 S.O2    1  UNL1        0.1153
     24 O         140.4172  141.5995  163.3969 O.2     1  UNL1       -0.1378
     25 O         139.4223  138.8615  164.1135 O.2     1  UNL1       -0.1378
     26 N         139.5893  140.7122  165.1368 N.am    1  UNL1       -0.1714
     27 C         140.6358  140.6844  166.2111 C.2     1  UNL1        0.2651
     28 O         142.0128  140.1748  165.9037 O.2     1  UNL1       -0.2685
     29 H         138.6856  141.0467  165.3386 H       1  UNL1        0.1779
     30 C         140.3055  141.1661  167.5927 C.ar    1  UNL1        0.0549
     31 C         139.6000  140.2572  168.5551 C.ar    1  UNL1        0.0046
     32 C         139.2696  140.7389  169.9367 C.ar    1  UNL1        0.0001
     33 C         139.6447  142.1294  170.3559 C.ar    1  UNL1        0.0000
     34 C         140.3501  143.0383  169.3934 C.ar    1  UNL1        0.0001
     35 C         140.6805  142.5566  168.0119 C.ar    1  UNL1        0.0046
@<TRIPOS>BOND
     1    14    15    1
     2    15    16   ar
     3    16    17    1
     4    16    18   ar
     5    18    19   ar
     6    19    20   ar
     7    20    13    1
     8    13     7    1
     9     7     8    1
    10     8     9    1
    11     9    10    1
    12    10     1    1
    13     1     2    1
    14     2     3    1
    15     3     4    1
    16     4    23    1
    17    23    24    2
    18    23    25    2
    19    23    26    1
    20    26    27   am
    21    27    28    2
    22    27    30    1
    23    30    31   ar
    24    31    32   ar
    25    32    33   ar
    26    33    34   ar
    27    34    35   ar
    28     4     5    1
    29     5     6    1
    30    10    11    1
    31    11    12    1
    32    20    21   ar
    33    21    22    1
    34    21    15   ar
    35    12     7    1
    36     6     1    1
    37    35    30   ar
    38    26    29    1
@<TRIPOS>MOLECULE
*****
 35 38 0 0 0
SMALL
GASTEIGER

@<TRIPOS>ATOM
      1 C         141.0001  144.1950  159.9649 C.3     1  UNL1        0.0604
      2 C         141.3847  142.7967  160.3481 C.3     1  UNL1        0.0352
      3 C         141.5804  142.4419  161.7924 C.3     1  UNL1        0.0985
      4 N         141.3915  143.4853  162.8533 N.3     1  UNL1       -0.1427
      5 C         141.0070  144.8836  162.4701 C.3     1  UNL1        0.0985
      6 C         140.8113  145.2385  161.0259 C.3     1  UNL1        0.0352
      7 C         140.4131  145.2598  155.6323 C.3     1  UNL1        0.1687
      8 C         141.5932  145.8001  156.3841 C.3     1  UNL1        0.0609
      9 C         141.7889  145.4451  157.8284 C.3     1  UNL1        0.0758
     10 N         140.8044  144.5499  158.5207 N.3     1  UNL1       -0.2736
     11 C         139.6243  144.0096  157.7689 C.3     1  UNL1        0.0758
     12 C         139.4286  144.3645  156.3247 C.3     1  UNL1        0.0609
     13 O         140.2174  145.6147  154.1881 O.3     1  UNL1       -0.4782
     14 C         139.3134  150.7242  154.4635 C.3     1  UNL1        0.0329
     15 C         140.0436  149.5653  153.8521 C.ar    1  UNL1        0.0023
     16 C         141.0519  149.8021  152.7672 C.ar    1  UNL1        0.0547
     17 CL        141.3301  151.1980  152.2935 Cl      1  UNL1       -0.0825
     18 C         141.7820  148.6432  152.1558 C.ar    1  UNL1        0.0142
     19 C         141.5039  147.2474  152.6294 C.ar    1  UNL1        0.0386
     20 C         140.4956  147.0105  153.7144 C.ar    1  UNL1        0.1485
     21 C         139.7654  148.1695  154.3257 C.ar    1  UNL1        0.0884
     22 CL        138.7571  147.9326  155.4108 Cl      1  UNL1       -0.0794
     23 S         141.5872  143.1304  164.2975 S.O2    1  UNL1        0.1153
     24 O         140.2496  142.4518  164.3120 O.2     1  UNL1       -0.1378
     25 O         142.9248  143.8089  164.2830 O.2     1  UNL1       -0.1378
     26 N         141.7829  142.7754  165.7418 N.am    1  UNL1       -0.1714
     27 C         142.4004  141.4601  166.1138 C.2     1  UNL1        0.2651
     28 O         142.8224  140.4996  165.0417 O.2     1  UNL1       -0.2685
     29 H         141.5060  143.4058  166.4455 H       1  UNL1        0.1779
     30 C         142.5961  141.1051  167.5581 C.ar    1  UNL1        0.0549
     31 C         142.2404  139.7327  168.0479 C.ar    1  UNL1        0.0046
     32 C         142.4360  139.3778  169.4921 C.ar    1  UNL1        0.0001
     33 C         142.9874  140.3952  170.4464 C.ar    1  UNL1        0.0000
     34 C         143.3431  141.7676  169.9566 C.ar    1  UNL1        0.0001
     35 C         143.1475  142.1226  168.5124 C.ar    1  UNL1        0.0046
@<TRIPOS>BOND
     1    14    15    1
     2    15    16   ar
     3    16    17    1
     4    16    18   ar
     5    18    19   ar
     6    19    20   ar
     7    20    13    1
     8    13     7    1
     9     7     8    1
    10     8     9    1
    11     9    10    1
    12    10     1    1
    13     1     2    1
    14     2     3    1
    15     3     4    1
    16     4    23    1
    17    23    24    2
    18    23    25    2
    19    23    26    1
    20    26    27   am
    21    27    28    2
    22    27    30    1
    23    30    31   ar
    24    31    32   ar
    25    32    33   ar
    26    33    34   ar
    27    34    35   ar
    28     4     5    1
    29     5     6    1
    30    10    11    1
    31    11    12    1
    32    20    21   ar
    33    21    22    1
    34    21    15   ar
    35    12     7    1
    36     6     1    1
    37    35    30   ar
    38    26    29    1
@<TRIPOS>MOLECULE
*****
 35 38 0 0 0
SMALL
GASTEIGER

@<TRIPOS>ATOM
      1 C         143.2143  142.3523  160.0250 C.3     1  UNL1        0.0604
      2 C         143.0008  141.0390  160.7175 C.3     1  UNL1        0.0352
      3 C         142.6883  141.0066  162.1843 C.3     1  UNL1        0.0985
      4 N         142.5893  142.2875  162.9585 N.3     1  UNL1       -0.1427
      5 C         142.8028  143.6008  162.2660 C.3     1  UNL1        0.0985
      6 C         143.1153  143.6333  160.7993 C.3     1  UNL1        0.0352
      7 C         144.1517  142.4498  155.6248 C.3     1  UNL1        0.1687
      8 C         143.1083  143.3673  156.1899 C.3     1  UNL1        0.0609
      9 C         142.7958  143.3348  157.6567 C.3     1  UNL1        0.0758
     10 N         143.5268  142.3848  158.5583 N.3     1  UNL1       -0.2736
     11 C         144.5702  141.4672  157.9933 C.3     1  UNL1        0.0758
     12 C         144.8827  141.4997  156.5266 C.3     1  UNL1        0.0609
     13 O         144.4642  142.4822  154.1581 O.3     1  UNL1       -0.4782
     14 C         148.8541  140.7713  151.9669 C.3     1  UNL1        0.0329
     15 C         148.0639  141.8778  152.6003 C.ar    1  UNL1        0.0023
     16 C         148.6785  143.2353  152.7716 C.ar    1  UNL1        0.0547
     17 CL        150.0833  143.4864  152.3094 Cl      1  UNL1       -0.0825
     18 C         147.8883  144.3419  153.4050 C.ar    1  UNL1        0.0142
     19 C         146.4836  144.0908  153.8672 C.ar    1  UNL1        0.0386
     20 C         145.8690  142.7333  153.6960 C.ar    1  UNL1        0.1485
     21 C         146.6592  141.6268  153.0625 C.ar    1  UNL1        0.0884
     22 CL        146.0446  140.2692  152.8913 Cl      1  UNL1       -0.0794
     23 S         142.2768  142.2550  164.4252 S.O2    1  UNL1        0.1153
     24 O         141.9601  143.7208  164.3902 O.2     1  UNL1       -0.1378
     25 O         142.5935  140.7893  164.4602 O.2     1  UNL1       -0.1378
     26 N         141.9643  142.2226  165.8920 N.am    1  UNL1       -0.1714
     27 C         140.5658  141.9401  166.3548 C.2     1  UNL1        0.2651
     28 O         139.4797  141.6899  165.3509 O.2     1  UNL1       -0.2685
     29 H         142.6771  142.3868  166.5509 H       1  UNL1        0.1779
     30 C         140.2532  141.9077  167.8216 C.ar    1  UNL1        0.0549
     31 C         140.4746  143.1298  168.6627 C.ar    1  UNL1        0.0046
     32 C         140.1621  143.0974  170.1294 C.ar    1  UNL1        0.0001
     33 C         139.6283  141.8429  170.7550 C.ar    1  UNL1        0.0000
     34 C         139.4070  140.6209  169.9138 C.ar    1  UNL1        0.0001
     35 C         139.7194  140.6532  168.4471 C.ar    1  UNL1        0.0046
@<TRIPOS>BOND
     1    14    15    1
     2    15    16   ar
     3    16    17    1
     4    16    18   ar
     5    18    19   ar
     6    19    20   ar
     7    20    13    1
     8    13     7    1
     9     7     8    1
    10     8     9    1
    11     9    10    1
    12    10     1    1
    13     1     2    1
    14     2     3    1
    15     3     4    1
    16     4    23    1
    17    23    24    2
    18    23    25    2
    19    23    26    1
    20    26    27   am
    21    27    28    2
    22    27    30    1
    23    30    31   ar
    24    31    32   ar
    25    32    33   ar
    26    33    34   ar
    27    34    35   ar
    28     4     5    1
    29     5     6    1
    30    10    11    1
    31    11    12    1
    32    20    21   ar
    33    21    22    1
    34    21    15   ar
    35    12     7    1
    36     6     1    1
    37    35    30   ar
    38    26    29    1
@<TRIPOS>MOLECULE
*****
 35 38 0 0 0
SMALL
GASTEIGER

@<TRIPOS>ATOM
      1 C         138.2678  142.0045  154.7213 C.3     1  UNL1        0.0604
      2 C         137.7466  140.9857  153.7515 C.3     1  UNL1        0.0352
      3 C         136.4000  140.3620  153.9704 C.3     1  UNL1        0.0985
      4 N         135.5748  140.7570  155.1591 N.3     1  UNL1       -0.1427
      5 C         136.0960  141.7758  156.1288 C.3     1  UNL1        0.0985
      6 C         137.4425  142.3995  155.9099 C.3     1  UNL1        0.0352
      7 C         142.3073  143.8756  154.0647 C.3     1  UNL1        0.1687
      8 C         141.5182  144.2077  155.2964 C.3     1  UNL1        0.0609
      9 C         140.1717  143.5839  155.5152 C.3     1  UNL1        0.0758
     10 N         139.6143  142.6282  154.5024 N.3     1  UNL1       -0.2736
     11 C         140.4034  142.2961  153.2707 C.3     1  UNL1        0.0758
     12 C         141.7499  142.9198  153.0518 C.3     1  UNL1        0.0609
     13 O         143.6538  144.4993  153.8458 O.3     1  UNL1       -0.4782
     14 C         148.7476  143.6318  153.2973 C.3     1  UNL1        0.0329
     15 C         147.4433  143.3275  153.9729 C.ar    1  UNL1        0.0023
     16 C         147.3817  142.2851  155.0497 C.ar    1  UNL1        0.0547
     17 CL        148.6244  141.5470  155.4510 Cl      1  UNL1       -0.0825
     18 C         146.0775  141.9807  155.7252 C.ar    1  UNL1        0.0142
     19 C         144.8349  142.7188  155.3239 C.ar    1  UNL1        0.0386
     20 C         144.8965  143.7612  154.2471 C.ar    1  UNL1        0.1485
     21 C         146.2007  144.0655  153.5716 C.ar    1  UNL1        0.0884
     22 CL        146.2622  145.1080  152.4947 Cl      1  UNL1       -0.0794
     23 S         134.2283  140.1333  155.3779 S.O2    1  UNL1        0.1153
     24 O         134.8603  138.7730  155.3892 O.2     1  UNL1       -0.1378
     25 O         133.5964  141.4936  155.3667 O.2     1  UNL1       -0.1378
     26 N         132.8818  139.5096  155.5968 N.am    1  UNL1       -0.1714
     27 C         132.4351  139.1572  156.9847 C.2     1  UNL1        0.2651
     28 O         133.3349  139.4286  158.1538 O.2     1  UNL1       -0.2685
     29 H         132.2912  139.3314  154.8295 H       1  UNL1        0.1779
     30 C         131.0886  138.5334  157.2036 C.ar    1  UNL1        0.0549
     31 C         130.5928  138.2895  158.5981 C.ar    1  UNL1        0.0046
     32 C         129.2463  137.6658  158.8170 C.ar    1  UNL1        0.0001
     33 C         128.3957  137.2859  157.6414 C.ar    1  UNL1        0.0000
     34 C         128.8915  137.5298  156.2469 C.ar    1  UNL1        0.0001
     35 C         130.2380  138.1535  156.0280 C.ar    1  UNL1        0.0046
@<TRIPOS>BOND
     1    14    15    1
     2    15    16   ar
     3    16    17    1
     4    16    18   ar
     5    18    19   ar
     6    19    20   ar
     7    20    13    1
     8    13     7    1
     9     7     8    1
    10     8     9    1
    11     9    10    1
    12    10     1    1
    13     1     2    1
    14     2     3    1
    15     3     4    1
    16     4    23    1
    17    23    24    2
    18    23    25    2
    19    23    26    1
    20    26    27   am
    21    27    28    2
    22    27    30    1
    23    30    31   ar
    24    31    32   ar
    25    32    33   ar
    26    33    34   ar
    27    34    35   ar
    28     4     5    1
    29     5     6    1
    30    10    11    1
    31    11    12    1
    32    20    21   ar
    33    21    22    1
    34    21    15   ar
    35    12     7    1
    36     6     1    1
    37    35    30   ar
    38    26    29    1
