@<TRIPOS>MOLECULE
*****
 30 34 0 0 0
SMALL
GASTEIGER

@<TRIPOS>ATOM
      1 C         145.0367  139.4852  164.0365 C.3     1  UNL1        0.0212
      2 C         143.6850  138.9637  163.6478 C.3     1  UNL1        0.0705
      3 N         142.5055  139.1950  164.5451 N.pl3   1  UNL1       -0.3339
      4 H         142.0331  138.4291  164.9446 H       1  UNL1        0.1468
      5 C         142.0455  140.5933  164.8337 C.ar    1  UNL1        0.0476
      6 C         142.1679  141.6553  163.7815 C.ar    1  UNL1        0.0350
      7 C         141.7079  143.0536  164.0702 C.ar    1  UNL1        0.1001
      8 N         141.1257  143.3898  165.4110 N.ar    1  UNL1       -0.2437
      9 C         141.0034  142.3278  166.4632 C.ar    1  UNL1        0.0833
     10 C         140.4211  142.6641  167.8041 C.ar    1  UNL1        0.0305
     11 C         140.2988  141.6021  168.8563 C.ar    1  UNL1        0.0592
     12 CL        139.7165  141.9384  170.1972 Cl      1  UNL1       -0.0822
     13 C         140.7587  140.2038  168.5677 C.ar    1  UNL1        0.0115
     14 C         141.3410  139.8675  167.2268 C.ar    1  UNL1        0.0036
     15 C         141.4633  140.9296  166.1746 C.ar    1  UNL1        0.0309
     16 C         143.5129  138.2108  162.3619 C.3     1  UNL1        0.0365
     17 C         142.1364  137.9080  161.8486 C.3     1  UNL1        0.0703
     18 N         141.1354  137.2334  162.7392 N.3     1  UNL1       -0.2974
     19 H         141.4120  137.4363  163.6997 H       1  UNL1        0.1232
     20 C         139.6796  137.5765  162.6260 C.3     1  UNL1        0.0685
     21 C         139.1492  138.8196  163.2769 C.3     1  UNL1        0.0145
     22 C         138.6765  138.7778  164.6998 C.3     1  UNL1        0.0013
     23 C         138.1461  140.0208  165.3507 C.3     1  UNL1        0.0000
     24 C         138.0885  141.3056  164.5786 C.3     1  UNL1        0.0000
     25 C         138.5613  141.3473  163.1557 C.3     1  UNL1        0.0000
     26 C         138.9738  138.2589  164.2047 C.3     1  UNL1        0.0000
     27 C         138.7341  137.4931  165.4719 C.3     1  UNL1        0.0000
     28 C         138.2037  138.7361  166.1228 C.3     1  UNL1        0.0000
     29 C         139.2068  137.5348  164.0490 C.3     1  UNL1        0.0013
     30 C         139.0916  140.1043  162.5048 C.3     1  UNL1        0.0013
@<TRIPOS>BOND
     1     1     2    1
     2     2    16    1
     3    16    17    1
     4    17    18    1
     5    18    20    1
     6    20    21    1
     7    21    22    1
     8    22    23    1
     9    23    24    1
    10    24    25    1
    11    25    26    1
    12    26    27    1
    13    27    28    1
    14    27    29    1
    15    25    30    1
    16     2     3    1
    17     3     5    1
    18     5     6   ar
    19     6     7   ar
    20     7     8   ar
    21     8     9   ar
    22     9    10   ar
    23    10    11   ar
    24    11    12    1
    25    11    13   ar
    26    13    14   ar
    27    14    15   ar
    28    29    21    1
    29    15     5   ar
    30    30    21    1
    31    15     9   ar
    32    28    23    1
    33    18    19    1
    34     3     4    1
@<TRIPOS>MOLECULE
*****
 30 34 0 0 0
SMALL
GASTEIGER

@<TRIPOS>ATOM
      1 C         143.6397  140.3989  160.5577 C.3     1  UNL1        0.0212
      2 C         144.0659  139.3985  161.5910 C.3     1  UNL1        0.0705
      3 N         144.9430  139.8247  162.7307 N.pl3   1  UNL1       -0.3339
      4 H         145.8043  139.3733  162.8845 H       1  UNL1        0.1468
      5 C         144.5079  140.9388  163.6360 C.ar    1  UNL1        0.0476
      6 C         144.8827  142.3554  163.3156 C.ar    1  UNL1        0.0350
      7 C         144.4476  143.4694  164.2209 C.ar    1  UNL1        0.1001
      8 N         143.6377  143.1668  165.4466 N.ar    1  UNL1       -0.2437
      9 C         143.2629  141.7502  165.7671 C.ar    1  UNL1        0.0833
     10 C         142.4529  141.4476  166.9928 C.ar    1  UNL1        0.0305
     11 C         142.0781  140.0310  167.3133 C.ar    1  UNL1        0.0592
     12 CL        141.2682  139.7284  168.5390 Cl      1  UNL1       -0.0822
     13 C         142.5132  138.9169  166.4079 C.ar    1  UNL1        0.0115
     14 C         143.3232  139.2195  165.1822 C.ar    1  UNL1        0.0036
     15 C         143.6980  140.6362  164.8618 C.ar    1  UNL1        0.0309
     16 C         143.6148  137.9719  161.4846 C.3     1  UNL1        0.0365
     17 C         142.1504  137.6473  161.4719 C.3     1  UNL1        0.0703
     18 N         141.4700  137.2018  162.7324 N.3     1  UNL1       -0.2974
     19 H         142.0384  137.5397  163.5090 H       1  UNL1        0.1232
     20 C         140.0585  137.6250  163.0125 C.3     1  UNL1        0.0685
     21 C         139.7918  138.8870  163.7784 C.3     1  UNL1        0.0145
     22 C         139.0320  138.8338  165.0705 C.3     1  UNL1        0.0013
     23 C         138.7654  140.0957  165.8363 C.3     1  UNL1        0.0000
     24 C         139.2586  141.4108  165.3099 C.3     1  UNL1        0.0000
     25 C         140.0184  141.4641  164.0177 C.3     1  UNL1        0.0000
     26 C         139.2622  138.3086  164.5470 C.3     1  UNL1        0.0000
     27 C         138.5388  137.5186  165.5970 C.3     1  UNL1        0.0000
     28 C         138.2721  138.7805  166.3627 C.3     1  UNL1        0.0000
     29 C         139.2986  137.5718  164.3048 C.3     1  UNL1        0.0013
     30 C         140.2850  140.2022  163.2520 C.3     1  UNL1        0.0013
@<TRIPOS>BOND
     1     1     2    1
     2     2    16    1
     3    16    17    1
     4    17    18    1
     5    18    20    1
     6    20    21    1
     7    21    22    1
     8    22    23    1
     9    23    24    1
    10    24    25    1
    11    25    26    1
    12    26    27    1
    13    27    28    1
    14    27    29    1
    15    25    30    1
    16     2     3    1
    17     3     5    1
    18     5     6   ar
    19     6     7   ar
    20     7     8   ar
    21     8     9   ar
    22     9    10   ar
    23    10    11   ar
    24    11    12    1
    25    11    13   ar
    26    13    14   ar
    27    14    15   ar
    28    29    21    1
    29    15     5   ar
    30    30    21    1
    31    15     9   ar
    32    28    23    1
    33    18    19    1
    34     3     4    1
@<TRIPOS>MOLECULE
*****
 30 34 0 0 0
SMALL
GASTEIGER

@<TRIPOS>ATOM
      1 C         142.0915  140.9858  159.6866 C.3     1  UNL1        0.0212
      2 C         142.0429  140.0177  160.8314 C.3     1  UNL1        0.0705
      3 N         141.5411  140.4661  162.1720 N.pl3   1  UNL1       -0.3339
      4 H         142.1664  140.5550  162.9272 H       1  UNL1        0.1468
      5 C         140.0864  140.7790  162.3620 C.ar    1  UNL1        0.0476
      6 C         139.0461  139.9801  161.6343 C.ar    1  UNL1        0.0350
      7 C         137.5915  140.2931  161.8243 C.ar    1  UNL1        0.1001
      8 N         137.1772  141.4049  162.7420 N.ar    1  UNL1       -0.2437
      9 C         138.2175  142.2038  163.4697 C.ar    1  UNL1        0.0833
     10 C         137.8031  143.3156  164.3874 C.ar    1  UNL1        0.0305
     11 C         138.8434  144.1145  165.1151 C.ar    1  UNL1        0.0592
     12 CL        138.4291  145.2264  166.0328 Cl      1  UNL1       -0.0822
     13 C         140.2981  143.8016  164.9251 C.ar    1  UNL1        0.0115
     14 C         140.7124  142.6897  164.0074 C.ar    1  UNL1        0.0036
     15 C         139.6721  141.8908  163.2797 C.ar    1  UNL1        0.0309
     16 C         142.4961  138.6013  160.6356 C.3     1  UNL1        0.0365
     17 C         142.5285  137.6565  161.8002 C.3     1  UNL1        0.0703
     18 N         141.2480  137.2240  162.4509 N.3     1  UNL1       -0.2974
     19 H         140.9932  136.3288  162.0335 H       1  UNL1        0.1232
     20 C         141.1871  137.0410  163.9384 C.3     1  UNL1        0.0685
     21 C         140.4799  138.0531  164.7903 C.3     1  UNL1        0.0145
     22 C         141.2713  139.0007  165.6421 C.3     1  UNL1        0.0013
     23 C         140.5641  140.0127  166.4939 C.3     1  UNL1        0.0000
     24 C         139.0655  140.0771  166.4939 C.3     1  UNL1        0.0000
     25 C         138.2741  139.1295  165.6421 C.3     1  UNL1        0.0000
     26 C         141.4478  138.4264  165.1503 C.3     1  UNL1        0.0000
     27 C         142.7699  138.9363  165.6421 C.3     1  UNL1        0.0000
     28 C         142.0627  139.9483  166.4939 C.3     1  UNL1        0.0000
     29 C         141.9785  137.9887  164.7903 C.3     1  UNL1        0.0013
     30 C         138.9813  138.1175  164.7903 C.3     1  UNL1        0.0013
@<TRIPOS>BOND
     1     1     2    1
     2     2    16    1
     3    16    17    1
     4    17    18    1
     5    18    20    1
     6    20    21    1
     7    21    22    1
     8    22    23    1
     9    23    24    1
    10    24    25    1
    11    25    26    1
    12    26    27    1
    13    27    28    1
    14    27    29    1
    15    25    30    1
    16     2     3    1
    17     3     5    1
    18     5     6   ar
    19     6     7   ar
    20     7     8   ar
    21     8     9   ar
    22     9    10   ar
    23    10    11   ar
    24    11    12    1
    25    11    13   ar
    26    13    14   ar
    27    14    15   ar
    28    29    21    1
    29    15     5   ar
    30    30    21    1
    31    15     9   ar
    32    28    23    1
    33    18    19    1
    34     3     4    1
@<TRIPOS>MOLECULE
*****
 30 34 0 0 0
SMALL
GASTEIGER

@<TRIPOS>ATOM
      1 C         138.3871  145.0817  165.8297 C.3     1  UNL1        0.0212
      2 C         138.9913  144.5982  164.5446 C.3     1  UNL1        0.0705
      3 N         140.4114  144.1158  164.5183 N.pl3   1  UNL1       -0.3339
      4 H         141.0913  144.6147  164.0103 H       1  UNL1        0.1468
      5 C         140.7955  142.8734  165.2659 C.ar    1  UNL1        0.0476
      6 C         140.6048  142.8033  166.7521 C.ar    1  UNL1        0.0350
      7 C         140.9889  141.5609  167.4997 C.ar    1  UNL1        0.1001
      8 N         141.5637  140.3887  166.7611 N.ar    1  UNL1       -0.2437
      9 C         141.7544  140.4588  165.2750 C.ar    1  UNL1        0.0833
     10 C         142.3292  139.2866  164.5364 C.ar    1  UNL1        0.0305
     11 C         142.5199  139.3567  163.0503 C.ar    1  UNL1        0.0592
     12 CL        143.0947  138.1845  162.3117 Cl      1  UNL1       -0.0822
     13 C         142.1357  140.5991  162.3026 C.ar    1  UNL1        0.0115
     14 C         141.5609  141.7714  163.0412 C.ar    1  UNL1        0.0036
     15 C         141.3703  141.7012  164.5274 C.ar    1  UNL1        0.0309
     16 C         138.1753  144.5970  163.2860 C.3     1  UNL1        0.0365
     17 C         138.3091  143.4688  162.3066 C.3     1  UNL1        0.0703
     18 N         137.4242  142.2634  162.4256 N.3     1  UNL1       -0.2974
     19 H         136.6862  142.3701  161.7296 H       1  UNL1        0.1232
     20 C         137.9987  140.8902  162.2405 C.3     1  UNL1        0.0685
     21 C         138.2491  140.0150  163.4328 C.3     1  UNL1        0.0145
     22 C         138.8530  138.6541  163.2506 C.3     1  UNL1        0.0013
     23 C         139.1034  137.7791  164.4428 C.3     1  UNL1        0.0000
     24 C         138.7500  138.2649  165.8173 C.3     1  UNL1        0.0000
     25 C         138.1461  139.6258  165.9995 C.3     1  UNL1        0.0000
     26 C         138.6537  139.2345  162.7749 C.3     1  UNL1        0.0000
     27 C         139.2064  138.1683  161.8762 C.3     1  UNL1        0.0000
     28 C         139.4569  137.2932  163.0684 C.3     1  UNL1        0.0000
     29 C         138.6026  139.5292  162.0584 C.3     1  UNL1        0.0013
     30 C         137.8957  140.5009  164.8072 C.3     1  UNL1        0.0013
@<TRIPOS>BOND
     1     1     2    1
     2     2    16    1
     3    16    17    1
     4    17    18    1
     5    18    20    1
     6    20    21    1
     7    21    22    1
     8    22    23    1
     9    23    24    1
    10    24    25    1
    11    25    26    1
    12    26    27    1
    13    27    28    1
    14    27    29    1
    15    25    30    1
    16     2     3    1
    17     3     5    1
    18     5     6   ar
    19     6     7   ar
    20     7     8   ar
    21     8     9   ar
    22     9    10   ar
    23    10    11   ar
    24    11    12    1
    25    11    13   ar
    26    13    14   ar
    27    14    15   ar
    28    29    21    1
    29    15     5   ar
    30    30    21    1
    31    15     9   ar
    32    28    23    1
    33    18    19    1
    34     3     4    1
@<TRIPOS>MOLECULE
*****
 30 34 0 0 0
SMALL
GASTEIGER

@<TRIPOS>ATOM
      1 C         144.0019  144.6835  164.6158 C.3     1  UNL1        0.0212
      2 C         143.3257  143.3449  164.5849 C.3     1  UNL1        0.0705
      3 N         142.3317  143.0314  163.5062 N.pl3   1  UNL1       -0.3339
      4 H         142.6394  142.8707  162.5849 H       1  UNL1        0.1468
      5 C         140.8689  142.9628  163.8311 C.ar    1  UNL1        0.0476
      6 C         140.2409  144.0204  164.6895 C.ar    1  UNL1        0.0350
      7 C         138.7781  143.9517  165.0144 C.ar    1  UNL1        0.1001
      8 N         137.9434  142.8254  164.4809 N.ar    1  UNL1       -0.2437
      9 C         138.5714  141.7678  163.6224 C.ar    1  UNL1        0.0833
     10 C         137.7367  140.6415  163.0889 C.ar    1  UNL1        0.0305
     11 C         138.3648  139.5838  162.2304 C.ar    1  UNL1        0.0592
     12 CL        137.5300  138.4575  161.6969 Cl      1  UNL1       -0.0822
     13 C         139.8276  139.6525  161.9055 C.ar    1  UNL1        0.0115
     14 C         140.6623  140.7788  162.4391 C.ar    1  UNL1        0.0036
     15 C         140.0342  141.8365  163.2975 C.ar    1  UNL1        0.0309
     16 C         143.6435  142.3198  165.6329 C.3     1  UNL1        0.0365
     17 C         143.0124  142.4144  166.9903 C.3     1  UNL1        0.0703
     18 N         142.2258  141.2587  167.5340 N.3     1  UNL1       -0.2974
     19 H         141.9761  141.4978  168.4936 H       1  UNL1        0.1232
     20 C         140.9616  140.8253  166.8529 C.3     1  UNL1        0.0685
     21 C         140.9489  139.5796  166.0172 C.3     1  UNL1        0.0145
     22 C         139.6709  138.8182  165.8253 C.3     1  UNL1        0.0013
     23 C         139.6583  137.5726  164.9897 C.3     1  UNL1        0.0000
     24 C         140.9237  137.0884  164.3460 C.3     1  UNL1        0.0000
     25 C         142.2017  137.8498  164.5379 C.3     1  UNL1        0.0000
     26 C         139.8739  139.4624  166.2082 C.3     1  UNL1        0.0000
     27 C         138.4055  139.3023  166.4690 C.3     1  UNL1        0.0000
     28 C         138.3929  138.0568  165.6334 C.3     1  UNL1        0.0000
     29 C         139.6835  140.0638  166.6609 C.3     1  UNL1        0.0013
     30 C         142.2143  139.0954  165.3735 C.3     1  UNL1        0.0013
@<TRIPOS>BOND
     1     1     2    1
     2     2    16    1
     3    16    17    1
     4    17    18    1
     5    18    20    1
     6    20    21    1
     7    21    22    1
     8    22    23    1
     9    23    24    1
    10    24    25    1
    11    25    26    1
    12    26    27    1
    13    27    28    1
    14    27    29    1
    15    25    30    1
    16     2     3    1
    17     3     5    1
    18     5     6   ar
    19     6     7   ar
    20     7     8   ar
    21     8     9   ar
    22     9    10   ar
    23    10    11   ar
    24    11    12    1
    25    11    13   ar
    26    13    14   ar
    27    14    15   ar
    28    29    21    1
    29    15     5   ar
    30    30    21    1
    31    15     9   ar
    32    28    23    1
    33    18    19    1
    34     3     4    1
@<TRIPOS>MOLECULE
*****
 30 34 0 0 0
SMALL
GASTEIGER

@<TRIPOS>ATOM
      1 C         138.3864  137.9864  165.8017 C.3     1  UNL1        0.0212
      2 C         138.5650  139.1949  164.9312 C.3     1  UNL1        0.0705
      3 N         138.7415  140.5482  165.5537 N.pl3   1  UNL1       -0.3339
      4 H         138.0017  141.1975  165.5382 H       1  UNL1        0.1468
      5 C         140.0454  140.9122  166.1999 C.ar    1  UNL1        0.0476
      6 C         140.3297  140.4835  167.6089 C.ar    1  UNL1        0.0350
      7 C         141.6335  140.8475  168.2550 C.ar    1  UNL1        0.1001
      8 N         142.6531  141.6402  167.4921 N.ar    1  UNL1       -0.2437
      9 C         142.3689  142.0689  166.0831 C.ar    1  UNL1        0.0833
     10 C         143.3885  142.8616  165.3202 C.ar    1  UNL1        0.0305
     11 C         143.1042  143.2903  163.9112 C.ar    1  UNL1        0.0592
     12 CL        144.1238  144.0830  163.1482 Cl      1  UNL1       -0.0822
     13 C         141.8004  142.9263  163.2650 C.ar    1  UNL1        0.0115
     14 C         140.7807  142.1336  164.0279 C.ar    1  UNL1        0.0036
     15 C         141.0650  141.7049  165.4370 C.ar    1  UNL1        0.0309
     16 C         138.5671  139.0501  163.4383 C.3     1  UNL1        0.0365
     17 C         138.9470  137.7410  162.8123 C.3     1  UNL1        0.0703
     18 N         140.3463  137.5244  162.3171 N.3     1  UNL1       -0.2974
     19 H         140.2727  137.2472  161.3383 H       1  UNL1        0.1232
     20 C         141.3444  138.6426  162.3766 C.3     1  UNL1        0.0685
     21 C         142.3160  138.7209  163.5167 C.3     1  UNL1        0.0145
     22 C         143.6088  139.4632  163.3508 C.3     1  UNL1        0.0013
     23 C         144.5804  139.5414  164.4909 C.3     1  UNL1        0.0000
     24 C         144.2591  138.8773  165.7969 C.3     1  UNL1        0.0000
     25 C         142.9664  138.1350  165.9629 C.3     1  UNL1        0.0000
     26 C         142.9982  139.3153  162.8945 C.3     1  UNL1        0.0000
     27 C         143.9300  140.1273  162.0447 C.3     1  UNL1        0.0000
     28 C         144.9016  140.2055  163.1848 C.3     1  UNL1        0.0000
     29 C         142.6373  139.3850  162.2107 C.3     1  UNL1        0.0013
     30 C         141.9948  138.0567  164.8228 C.3     1  UNL1        0.0013
@<TRIPOS>BOND
     1     1     2    1
     2     2    16    1
     3    16    17    1
     4    17    18    1
     5    18    20    1
     6    20    21    1
     7    21    22    1
     8    22    23    1
     9    23    24    1
    10    24    25    1
    11    25    26    1
    12    26    27    1
    13    27    28    1
    14    27    29    1
    15    25    30    1
    16     2     3    1
    17     3     5    1
    18     5     6   ar
    19     6     7   ar
    20     7     8   ar
    21     8     9   ar
    22     9    10   ar
    23    10    11   ar
    24    11    12    1
    25    11    13   ar
    26    13    14   ar
    27    14    15   ar
    28    29    21    1
    29    15     5   ar
    30    30    21    1
    31    15     9   ar
    32    28    23    1
    33    18    19    1
    34     3     4    1
@<TRIPOS>MOLECULE
*****
 30 34 0 0 0
SMALL
GASTEIGER

@<TRIPOS>ATOM
      1 C         140.3886  143.7179  161.5398 C.3     1  UNL1        0.0212
      2 C         140.2783  143.7775  163.0346 C.3     1  UNL1        0.0705
      3 N         141.5031  143.6098  163.8842 N.pl3   1  UNL1       -0.3339
      4 H         141.9889  144.4019  164.2094 H       1  UNL1        0.1468
      5 C         141.9877  142.2350  164.2384 C.ar    1  UNL1        0.0476
      6 C         142.8385  141.4672  163.2706 C.ar    1  UNL1        0.0350
      7 C         143.3230  140.0926  163.6248 C.ar    1  UNL1        0.1001
      8 N         142.9569  139.4858  164.9468 N.ar    1  UNL1       -0.2437
      9 C         142.1061  140.2536  165.9146 C.ar    1  UNL1        0.0833
     10 C         141.7400  139.6467  167.2366 C.ar    1  UNL1        0.0305
     11 C         140.8892  140.4145  168.2044 C.ar    1  UNL1        0.0592
     12 CL        140.5231  139.8077  169.5264 Cl      1  UNL1       -0.0822
     13 C         140.4046  141.7892  167.8502 C.ar    1  UNL1        0.0115
     14 C         140.7708  142.3961  166.5282 C.ar    1  UNL1        0.0036
     15 C         141.6216  141.6282  165.5604 C.ar    1  UNL1        0.0309
     16 C         138.9434  144.0048  163.6798 C.3     1  UNL1        0.0365
     17 C         137.7064  143.4126  163.0724 C.3     1  UNL1        0.0703
     18 N         137.2482  142.0455  163.4862 N.3     1  UNL1       -0.2974
     19 H         137.2298  141.4731  162.6422 H       1  UNL1        0.1232
     20 C         138.0212  141.2750  164.5151 C.3     1  UNL1        0.0685
     21 C         138.7475  140.0220  164.1245 C.3     1  UNL1        0.0145
     22 C         138.7679  138.8458  165.0551 C.3     1  UNL1        0.0013
     23 C         139.4942  137.5929  164.6645 C.3     1  UNL1        0.0000
     24 C         140.2003  137.5162  163.3433 C.3     1  UNL1        0.0000
     25 C         140.1799  138.6924  162.4127 C.3     1  UNL1        0.0000
     26 C         138.4577  139.5573  165.0763 C.3     1  UNL1        0.0000
     27 C         138.0619  138.9225  166.3764 C.3     1  UNL1        0.0000
     28 C         138.7882  137.6696  165.9857 C.3     1  UNL1        0.0000
     29 C         138.0415  140.0987  165.4458 C.3     1  UNL1        0.0013
     30 C         139.4536  139.9453  162.8033 C.3     1  UNL1        0.0013
@<TRIPOS>BOND
     1     1     2    1
     2     2    16    1
     3    16    17    1
     4    17    18    1
     5    18    20    1
     6    20    21    1
     7    21    22    1
     8    22    23    1
     9    23    24    1
    10    24    25    1
    11    25    26    1
    12    26    27    1
    13    27    28    1
    14    27    29    1
    15    25    30    1
    16     2     3    1
    17     3     5    1
    18     5     6   ar
    19     6     7   ar
    20     7     8   ar
    21     8     9   ar
    22     9    10   ar
    23    10    11   ar
    24    11    12    1
    25    11    13   ar
    26    13    14   ar
    27    14    15   ar
    28    29    21    1
    29    15     5   ar
    30    30    21    1
    31    15     9   ar
    32    28    23    1
    33    18    19    1
    34     3     4    1
@<TRIPOS>MOLECULE
*****
 30 34 0 0 0
SMALL
GASTEIGER

@<TRIPOS>ATOM
      1 C         140.2272  137.4449  163.2315 C.3     1  UNL1        0.0212
      2 C         140.1389  138.3545  162.0420 C.3     1  UNL1        0.0705
      3 N         141.3454  139.1269  161.5973 N.pl3   1  UNL1       -0.3339
      4 H         141.7543  138.9400  160.7215 H       1  UNL1        0.1468
      5 C         141.9289  140.1842  162.4872 C.ar    1  UNL1        0.0476
      6 C         142.9003  139.8048  163.5653 C.ar    1  UNL1        0.0350
      7 C         143.4838  140.8620  164.4551 C.ar    1  UNL1        0.1001
      8 N         143.0958  142.2987  164.2668 N.ar    1  UNL1       -0.2437
      9 C         142.1244  142.6781  163.1887 C.ar    1  UNL1        0.0833
     10 C         141.7364  144.1148  163.0004 C.ar    1  UNL1        0.0305
     11 C         140.7650  144.4942  161.9223 C.ar    1  UNL1        0.0592
     12 CL        140.3770  145.9309  161.7340 Cl      1  UNL1       -0.0822
     13 C         140.1815  143.4370  161.0325 C.ar    1  UNL1        0.0115
     14 C         140.5694  142.0003  161.2208 C.ar    1  UNL1        0.0036
     15 C         141.5409  141.6209  162.2989 C.ar    1  UNL1        0.0309
     16 C         138.8441  138.4918  161.2972 C.3     1  UNL1        0.0365
     17 C         138.0823  139.7828  161.3492 C.3     1  UNL1        0.0703
     18 N         137.3076  140.1475  162.5809 N.3     1  UNL1       -0.2974
     19 H         137.6133  139.5138  163.3194 H       1  UNL1        0.1232
     20 C         137.3963  141.5372  163.1386 C.3     1  UNL1        0.0685
     21 C         138.3566  141.8392  164.2507 C.3     1  UNL1        0.0145
     22 C         138.5691  143.2563  164.6939 C.3     1  UNL1        0.0013
     23 C         139.5293  143.5583  165.8060 C.3     1  UNL1        0.0000
     24 C         140.2770  142.4431  166.4748 C.3     1  UNL1        0.0000
     25 C         140.0645  141.0260  166.0316 C.3     1  UNL1        0.0000
     26 C         138.1303  142.9095  164.1553 C.3     1  UNL1        0.0000
     27 C         137.8214  144.3715  164.0251 C.3     1  UNL1        0.0000
     28 C         138.7816  144.6735  165.1371 C.3     1  UNL1        0.0000
     29 C         137.6089  142.9544  163.5819 C.3     1  UNL1        0.0013
     30 C         139.1042  140.7240  164.9196 C.3     1  UNL1        0.0013
@<TRIPOS>BOND
     1     1     2    1
     2     2    16    1
     3    16    17    1
     4    17    18    1
     5    18    20    1
     6    20    21    1
     7    21    22    1
     8    22    23    1
     9    23    24    1
    10    24    25    1
    11    25    26    1
    12    26    27    1
    13    27    28    1
    14    27    29    1
    15    25    30    1
    16     2     3    1
    17     3     5    1
    18     5     6   ar
    19     6     7   ar
    20     7     8   ar
    21     8     9   ar
    22     9    10   ar
    23    10    11   ar
    24    11    12    1
    25    11    13   ar
    26    13    14   ar
    27    14    15   ar
    28    29    21    1
    29    15     5   ar
    30    30    21    1
    31    15     9   ar
    32    28    23    1
    33    18    19    1
    34     3     4    1
@<TRIPOS>MOLECULE
*****
 30 34 0 0 0
SMALL
GASTEIGER

@<TRIPOS>ATOM
      1 C         138.2782  138.4148  161.3936 C.3     1  UNL1        0.0212
      2 C         139.5089  139.2017  161.0526 C.3     1  UNL1        0.0705
      3 N         139.4653  140.7010  161.0555 N.pl3   1  UNL1       -0.3339
      4 H         139.5906  141.1987  160.2153 H       1  UNL1        0.1468
      5 C         139.2307  141.4421  162.3384 C.ar    1  UNL1        0.0476
      6 C         137.8358  141.8153  162.7447 C.ar    1  UNL1        0.0350
      7 C         137.6013  142.5563  164.0276 C.ar    1  UNL1        0.1001
      8 N         138.7616  142.9241  164.9042 N.ar    1  UNL1       -0.2437
      9 C         140.1564  142.5509  164.4979 C.ar    1  UNL1        0.0833
     10 C         141.3167  142.9187  165.3745 C.ar    1  UNL1        0.0305
     11 C         142.7115  142.5455  164.9683 C.ar    1  UNL1        0.0592
     12 CL        143.8718  142.9133  165.8449 Cl      1  UNL1       -0.0822
     13 C         142.9461  141.8045  163.6853 C.ar    1  UNL1        0.0115
     14 C         141.7858  141.4367  162.8087 C.ar    1  UNL1        0.0036
     15 C         140.3909  141.8099  163.2150 C.ar    1  UNL1        0.0309
     16 C         140.7833  138.4891  160.7088 C.3     1  UNL1        0.0365
     17 C         141.7686  138.1517  161.7883 C.3     1  UNL1        0.0703
     18 N         141.4850  137.0249  162.7371 N.3     1  UNL1       -0.2974
     19 H         142.3867  136.6989  163.0850 H       1  UNL1        0.1232
     20 C         140.6157  137.2560  163.9374 C.3     1  UNL1        0.0685
     21 C         141.1016  138.1252  165.0593 C.3     1  UNL1        0.0145
     22 C         140.1263  138.9512  165.8445 C.3     1  UNL1        0.0013
     23 C         140.6122  139.8203  166.9663 C.3     1  UNL1        0.0000
     24 C         142.0734  139.8635  167.3028 C.3     1  UNL1        0.0000
     25 C         143.0486  139.0376  166.5175 C.3     1  UNL1        0.0000
     26 C         140.0718  138.4560  165.2489 C.3     1  UNL1        0.0000
     27 C         138.6652  138.9080  165.5080 C.3     1  UNL1        0.0000
     28 C         139.1511  139.7771  166.6297 C.3     1  UNL1        0.0000
     29 C         139.6404  138.0820  164.7227 C.3     1  UNL1        0.0013
     30 C         142.5627  138.1684  165.3958 C.3     1  UNL1        0.0013
@<TRIPOS>BOND
     1     1     2    1
     2     2    16    1
     3    16    17    1
     4    17    18    1
     5    18    20    1
     6    20    21    1
     7    21    22    1
     8    22    23    1
     9    23    24    1
    10    24    25    1
    11    25    26    1
    12    26    27    1
    13    27    28    1
    14    27    29    1
    15    25    30    1
    16     2     3    1
    17     3     5    1
    18     5     6   ar
    19     6     7   ar
    20     7     8   ar
    21     8     9   ar
    22     9    10   ar
    23    10    11   ar
    24    11    12    1
    25    11    13   ar
    26    13    14   ar
    27    14    15   ar
    28    29    21    1
    29    15     5   ar
    30    30    21    1
    31    15     9   ar
    32    28    23    1
    33    18    19    1
    34     3     4    1
