@<TRIPOS>MOLECULE
*****
 32 34 0 0 0
SMALL
GASTEIGER

@<TRIPOS>ATOM
      1 C         140.0210  141.5744  168.6031 C.3     1  UNL1        0.1261
      2 C         140.6824  142.8428  169.0544 C.3     1  UNL1        0.0290
      3 N         140.6609  142.0829  167.3454 N.am    1  UNL1       -0.2963
      4 C         140.6435  141.4735  165.9749 C.2     1  UNL1        0.2474
      5 O         141.3859  142.2329  164.9155 O.2     1  UNL1       -0.2701
      6 C         139.9821  140.2051  165.5235 C.ar    1  UNL1        0.0690
      7 C         140.2109  139.9577  164.0619 C.ar    1  UNL1        0.0260
      8 C         139.6322  138.7381  163.4081 C.ar    1  UNL1        0.1262
      9 C         138.8246  137.7658  164.2159 C.ar    1  UNL1        0.0328
     10 C         138.5958  138.0132  165.6775 C.ar    1  UNL1        0.0726
     11 CL        137.7883  137.0409  166.4853 Cl      1  UNL1       -0.0809
     12 C         139.1746  139.2328  166.3314 C.ar    1  UNL1        0.0655
     13 N         138.8291  139.2888  167.7900 N.am    1  UNL1       -0.2819
     14 C         139.2057  140.3309  168.8010 C.2     1  UNL1        0.2420
     15 O         138.7004  140.0988  170.1941 O.2     1  UNL1       -0.2731
     16 H         141.1579  142.9284  167.4306 H       1  UNL1        0.1501
     17 H         138.2829  138.5430  168.1285 H       1  UNL1        0.1549
     18 S         139.8609  138.4907  161.9464 S.O2    1  UNL1        0.0737
     19 O         138.9786  139.6565  161.6110 O.2     1  UNL1       -0.1499
     20 O         140.7433  137.3250  162.2817 O.2     1  UNL1       -0.1499
     21 N         140.0897  138.2434  160.4847 N.pl3   1  UNL1       -0.2128
     22 H         139.4528  137.6941  159.9728 H       1  UNL1        0.1738
     23 C         141.2887  138.8329  159.8029 C.ar    1  UNL1        0.0923
     24 C         142.2015  139.7552  160.5554 C.ar    1  UNL1        0.0204
     25 C         143.4004  140.3446  159.8736 C.ar    1  UNL1        0.0311
     26 C         143.6867  140.0118  158.4392 C.ar    1  UNL1        0.1425
     27 F         144.8857  140.6014  157.7574 F       1  UNL1       -0.2041
     28 C         142.7739  139.0896  157.6867 C.ar    1  UNL1        0.0606
     29 C         141.5750  138.5001  158.3686 C.ar    1  UNL1        0.1568
     30 F         140.6621  137.5778  157.6160 F       1  UNL1       -0.2027
     31 C         139.7803  142.9273  170.8081 C.3     1  UNL1        0.0022
     32 C         139.6755  141.6304  170.0617 C.3     1  UNL1        0.0269
@<TRIPOS>BOND
     1    31    32    1
     2    32     1    1
     3     1     2    1
     4     1     3    1
     5     3     4   am
     6     4     5    2
     7     4     6    1
     8     6     7   ar
     9     7     8   ar
    10     8    18    1
    11    18    19    2
    12    18    20    2
    13    18    21    1
    14    21    23    1
    15    23    24   ar
    16    24    25   ar
    17    25    26   ar
    18    26    27    1
    19    26    28   ar
    20    28    29   ar
    21    29    30    1
    22     8     9   ar
    23     9    10   ar
    24    10    11    1
    25    10    12   ar
    26    12    13    1
    27    13    14   am
    28    14    15    2
    29    14     1    1
    30    12     6   ar
    31    29    23   ar
    32     3    16    1
    33    21    22    1
    34    13    17    1
@<TRIPOS>MOLECULE
*****
 32 34 0 0 0
SMALL
GASTEIGER

@<TRIPOS>ATOM
      1 C         141.7187  140.7989  167.2920 C.3     1  UNL1        0.1261
      2 C         142.6330  139.6506  167.6012 C.3     1  UNL1        0.0290
      3 N         142.5248  140.6660  166.0340 N.am    1  UNL1       -0.2963
      4 C         142.4380  141.4803  164.7772 C.2     1  UNL1        0.2474
      5 O         143.3916  141.0954  163.6852 O.2     1  UNL1       -0.2701
      6 C         141.5237  142.6285  164.4680 C.ar    1  UNL1        0.0690
      7 C         141.7651  143.1651  163.0883 C.ar    1  UNL1        0.0260
      8 C         140.9531  144.3192  162.5798 C.ar    1  UNL1        0.1262
      9 C         139.8998  144.9368  163.4510 C.ar    1  UNL1        0.0328
     10 C         139.6584  144.4002  164.8308 C.ar    1  UNL1        0.0726
     11 CL        138.6051  145.0178  165.7020 Cl      1  UNL1       -0.0809
     12 C         140.4703  143.2461  165.3393 C.ar    1  UNL1        0.0655
     13 N         140.0712  142.8679  166.7349 N.am    1  UNL1       -0.2819
     14 C         140.6267  141.7788  167.6039 C.2     1  UNL1        0.2420
     15 O         140.0086  141.6531  168.9648 O.2     1  UNL1       -0.2731
     16 H         143.2001  139.9496  166.0330 H       1  UNL1        0.1501
     17 H         139.3491  143.4057  167.1331 H       1  UNL1        0.1549
     18 S         141.1945  144.8559  161.1999 S.O2    1  UNL1        0.0737
     19 O         139.7305  145.1505  161.0585 O.2     1  UNL1       -0.1499
     20 O         142.6584  144.5613  161.3414 O.2     1  UNL1       -0.1499
     21 N         141.4358  145.3925  159.8202 N.pl3   1  UNL1       -0.2128
     22 H         141.9162  146.2433  159.7000 H       1  UNL1        0.1738
     23 C         140.9450  144.6327  158.6235 C.ar    1  UNL1        0.0923
     24 C         141.2576  143.1725  158.4822 C.ar    1  UNL1        0.0204
     25 C         140.7669  142.4129  157.2855 C.ar    1  UNL1        0.0311
     26 C         139.9634  143.1134  156.2302 C.ar    1  UNL1        0.1425
     27 F         139.4727  142.3536  155.0335 F       1  UNL1       -0.2041
     28 C         139.6508  144.5736  156.3715 C.ar    1  UNL1        0.0606
     29 C         140.1416  145.3333  157.5681 C.ar    1  UNL1        0.1568
     30 F         139.8289  146.7935  157.7095 F       1  UNL1       -0.2027
     31 C         142.1595  139.4575  169.4730 C.3     1  UNL1        0.0022
     32 C         141.3195  140.4207  168.6876 C.3     1  UNL1        0.0269
@<TRIPOS>BOND
     1    31    32    1
     2    32     1    1
     3     1     2    1
     4     1     3    1
     5     3     4   am
     6     4     5    2
     7     4     6    1
     8     6     7   ar
     9     7     8   ar
    10     8    18    1
    11    18    19    2
    12    18    20    2
    13    18    21    1
    14    21    23    1
    15    23    24   ar
    16    24    25   ar
    17    25    26   ar
    18    26    27    1
    19    26    28   ar
    20    28    29   ar
    21    29    30    1
    22     8     9   ar
    23     9    10   ar
    24    10    11    1
    25    10    12   ar
    26    12    13    1
    27    13    14   am
    28    14    15    2
    29    14     1    1
    30    12     6   ar
    31    29    23   ar
    32     3    16    1
    33    21    22    1
    34    13    17    1
@<TRIPOS>MOLECULE
*****
 32 34 0 0 0
SMALL
GASTEIGER

@<TRIPOS>ATOM
      1 C         140.7950  140.8130  167.9422 C.3     1  UNL1        0.1261
      2 C         139.5696  140.1096  168.4458 C.3     1  UNL1        0.0290
      3 N         139.7725  141.1304  166.8916 N.am    1  UNL1       -0.2963
      4 C         139.9355  141.9490  165.6452 C.2     1  UNL1        0.2474
      5 O         138.7109  142.0818  164.7892 O.2     1  UNL1       -0.2701
      6 C         141.1609  142.6524  165.1417 C.ar    1  UNL1        0.0690
      7 C         140.8928  143.3619  163.8476 C.ar    1  UNL1        0.0260
      8 C         141.9899  144.1298  163.1720 C.ar    1  UNL1        0.1262
      9 C         143.3552  144.1883  163.7905 C.ar    1  UNL1        0.0328
     10 C         143.6234  143.4788  165.0846 C.ar    1  UNL1        0.0726
     11 CL        144.9887  143.5373  165.7031 Cl      1  UNL1       -0.0809
     12 C         142.5262  142.7108  165.7602 C.ar    1  UNL1        0.0655
     13 N         143.0032  142.0804  167.0350 N.am    1  UNL1       -0.2819
     14 C         142.2328  141.2357  168.0061 C.2     1  UNL1        0.2420
     15 O         143.0018  140.7496  169.1986 O.2     1  UNL1       -0.2731
     16 H         138.8761  140.7513  167.0395 H       1  UNL1        0.1501
     17 H         143.9467  142.2424  167.2646 H       1  UNL1        0.1549
     18 S         141.7218  144.8393  161.8779 S.O2    1  UNL1        0.0737
     19 O         142.9156  144.1702  161.2638 O.2     1  UNL1       -0.1499
     20 O         140.5280  145.5084  162.4920 O.2     1  UNL1       -0.1499
     21 N         141.4537  145.5488  160.5838 N.pl3   1  UNL1       -0.2128
     22 H         141.7298  146.4870  160.4704 H       1  UNL1        0.1738
     23 C         140.7651  144.8288  159.4624 C.ar    1  UNL1        0.0923
     24 C         139.7872  143.7321  159.7638 C.ar    1  UNL1        0.0204
     25 C         139.0986  143.0122  158.6424 C.ar    1  UNL1        0.0311
     26 C         139.3879  143.3890  157.2196 C.ar    1  UNL1        0.1425
     27 F         138.6993  142.6691  156.0982 F       1  UNL1       -0.2041
     28 C         140.3658  144.4858  156.9182 C.ar    1  UNL1        0.0606
     29 C         141.0544  145.2057  158.0396 C.ar    1  UNL1        0.1568
     30 F         142.0323  146.3025  157.7382 F       1  UNL1       -0.2027
     31 C         140.3007  139.9052  170.3259 C.3     1  UNL1        0.0022
     32 C         141.2720  140.1825  169.2170 C.3     1  UNL1        0.0269
@<TRIPOS>BOND
     1    31    32    1
     2    32     1    1
     3     1     2    1
     4     1     3    1
     5     3     4   am
     6     4     5    2
     7     4     6    1
     8     6     7   ar
     9     7     8   ar
    10     8    18    1
    11    18    19    2
    12    18    20    2
    13    18    21    1
    14    21    23    1
    15    23    24   ar
    16    24    25   ar
    17    25    26   ar
    18    26    27    1
    19    26    28   ar
    20    28    29   ar
    21    29    30    1
    22     8     9   ar
    23     9    10   ar
    24    10    11    1
    25    10    12   ar
    26    12    13    1
    27    13    14   am
    28    14    15    2
    29    14     1    1
    30    12     6   ar
    31    29    23   ar
    32     3    16    1
    33    21    22    1
    34    13    17    1
@<TRIPOS>MOLECULE
*****
 32 34 0 0 0
SMALL
GASTEIGER

@<TRIPOS>ATOM
      1 C         140.0888  141.6181  168.6482 C.3     1  UNL1        0.1261
      2 C         140.7867  142.8807  169.0590 C.3     1  UNL1        0.0290
      3 N         140.6873  142.1026  167.3609 N.am    1  UNL1       -0.2963
      4 C         140.6076  141.4786  165.9992 C.2     1  UNL1        0.2474
      5 O         141.3200  142.2145  164.9034 O.2     1  UNL1       -0.2701
      6 C         139.9096  140.2160  165.5884 C.ar    1  UNL1        0.0690
      7 C         140.0778  139.9490  164.1220 C.ar    1  UNL1        0.0260
      8 C         139.4555  138.7317  163.5051 C.ar    1  UNL1        0.1262
      9 C         138.6649  137.7812  164.3546 C.ar    1  UNL1        0.0328
     10 C         138.4967  138.0482  165.8210 C.ar    1  UNL1        0.0726
     11 CL        137.7061  137.0977  166.6705 Cl      1  UNL1       -0.0809
     12 C         139.1190  139.2655  166.4379 C.ar    1  UNL1        0.0655
     13 N         138.8311  139.3430  167.9080 N.am    1  UNL1       -0.2819
     14 C         139.2627  140.3899  168.8917 C.2     1  UNL1        0.2420
     15 O         138.8081  140.1812  170.3058 O.2     1  UNL1       -0.2731
     16 H         141.2003  142.9410  167.4172 H       1  UNL1        0.1501
     17 H         138.2870  138.6097  168.2759 H       1  UNL1        0.1549
     18 S         139.6237  138.4647  162.0386 S.O2    1  UNL1        0.0737
     19 O         140.9972  139.0655  162.0868 O.2     1  UNL1       -0.1499
     20 O         138.2501  137.8639  161.9904 O.2     1  UNL1       -0.1499
     21 N         139.7919  138.1978  160.5722 N.pl3   1  UNL1       -0.2128
     22 H         140.1730  137.3425  160.2681 H       1  UNL1        0.1738
     23 C         139.3794  139.2339  159.5690 C.ar    1  UNL1        0.0923
     24 C         138.8437  140.5559  160.0333 C.ar    1  UNL1        0.0204
     25 C         138.4313  141.5920  159.0301 C.ar    1  UNL1        0.0311
     26 C         138.5544  141.3061  157.5628 C.ar    1  UNL1        0.1425
     27 F         138.1419  142.3423  156.5596 F       1  UNL1       -0.2041
     28 C         139.0901  139.9842  157.0985 C.ar    1  UNL1        0.0606
     29 C         139.5026  138.9481  158.1017 C.ar    1  UNL1        0.1568
     30 F         140.0383  137.6261  157.6375 F       1  UNL1       -0.2027
     31 C         139.8612  143.0168  170.8258 C.3     1  UNL1        0.0022
     32 C         139.8009  141.6956  170.1183 C.3     1  UNL1        0.0269
@<TRIPOS>BOND
     1    31    32    1
     2    32     1    1
     3     1     2    1
     4     1     3    1
     5     3     4   am
     6     4     5    2
     7     4     6    1
     8     6     7   ar
     9     7     8   ar
    10     8    18    1
    11    18    19    2
    12    18    20    2
    13    18    21    1
    14    21    23    1
    15    23    24   ar
    16    24    25   ar
    17    25    26   ar
    18    26    27    1
    19    26    28   ar
    20    28    29   ar
    21    29    30    1
    22     8     9   ar
    23     9    10   ar
    24    10    11    1
    25    10    12   ar
    26    12    13    1
    27    13    14   am
    28    14    15    2
    29    14     1    1
    30    12     6   ar
    31    29    23   ar
    32     3    16    1
    33    21    22    1
    34    13    17    1
@<TRIPOS>MOLECULE
*****
 32 34 0 0 0
SMALL
GASTEIGER

@<TRIPOS>ATOM
      1 C         140.8097  141.6264  169.0750 C.3     1  UNL1        0.1261
      2 C         141.6230  142.7369  169.6711 C.3     1  UNL1        0.0290
      3 N         140.9891  142.5661  167.9196 N.am    1  UNL1       -0.2963
      4 C         140.4807  142.4291  166.5151 C.2     1  UNL1        0.2474
      5 O         140.8320  143.5509  165.5834 O.2     1  UNL1       -0.2701
      6 C         139.6674  141.3185  165.9189 C.ar    1  UNL1        0.0690
      7 C         139.3687  141.5741  164.4714 C.ar    1  UNL1        0.0260
      8 C         138.5643  140.5818  163.6851 C.ar    1  UNL1        0.1262
      9 C         138.0586  139.3340  164.3463 C.ar    1  UNL1        0.0328
     10 C         138.3573  139.0785  165.7938 C.ar    1  UNL1        0.0726
     11 CL        137.8515  137.8307  166.4551 Cl      1  UNL1       -0.0809
     12 C         139.1617  140.0707  166.5802 C.ar    1  UNL1        0.0655
     13 N         139.3443  139.6253  168.0008 N.am    1  UNL1       -0.2819
     14 C         140.0777  140.3176  169.1112 C.2     1  UNL1        0.2420
     15 O         140.0794  139.6073  170.4322 O.2     1  UNL1       -0.2731
     16 H         141.5092  143.3805  168.1081 H       1  UNL1        0.1501
     17 H         138.9277  138.7648  168.2356 H       1  UNL1        0.1549
     18 S         138.2656  140.8374  162.2374 S.O2    1  UNL1        0.0737
     19 O         139.4780  140.0449  161.8474 O.2     1  UNL1       -0.1499
     20 O         137.0532  141.6298  162.6274 O.2     1  UNL1       -0.1499
     21 N         137.9670  141.0929  160.7899 N.pl3   1  UNL1       -0.2128
     22 H         137.3136  140.5297  160.3152 H       1  UNL1        0.1738
     23 C         138.6637  142.2063  160.0654 C.ar    1  UNL1        0.0923
     24 C         139.3827  143.2707  160.8401 C.ar    1  UNL1        0.0204
     25 C         140.0795  144.3841  160.1156 C.ar    1  UNL1        0.0311
     26 C         140.0572  144.4332  158.6166 C.ar    1  UNL1        0.1425
     27 F         140.7540  145.5467  157.8922 F       1  UNL1       -0.2041
     28 C         139.3382  143.3688  157.8420 C.ar    1  UNL1        0.0606
     29 C         138.6415  142.2554  158.5664 C.ar    1  UNL1        0.1568
     30 F         137.9224  141.1909  157.7918 F       1  UNL1       -0.2027
     31 C         141.8209  142.0022  171.4385 C.3     1  UNL1        0.0022
     32 C         140.9924  141.1810  170.4956 C.3     1  UNL1        0.0269
@<TRIPOS>BOND
     1    31    32    1
     2    32     1    1
     3     1     2    1
     4     1     3    1
     5     3     4   am
     6     4     5    2
     7     4     6    1
     8     6     7   ar
     9     7     8   ar
    10     8    18    1
    11    18    19    2
    12    18    20    2
    13    18    21    1
    14    21    23    1
    15    23    24   ar
    16    24    25   ar
    17    25    26   ar
    18    26    27    1
    19    26    28   ar
    20    28    29   ar
    21    29    30    1
    22     8     9   ar
    23     9    10   ar
    24    10    11    1
    25    10    12   ar
    26    12    13    1
    27    13    14   am
    28    14    15    2
    29    14     1    1
    30    12     6   ar
    31    29    23   ar
    32     3    16    1
    33    21    22    1
    34    13    17    1
@<TRIPOS>MOLECULE
*****
 32 34 0 0 0
SMALL
GASTEIGER

@<TRIPOS>ATOM
      1 C         140.7449  140.0764  169.2665 C.3     1  UNL1        0.1261
      2 C         139.7206  140.4117  170.3098 C.3     1  UNL1        0.0290
      3 N         139.4490  139.8864  168.5352 N.am    1  UNL1       -0.2963
      4 C         139.2314  139.4652  167.1121 C.2     1  UNL1        0.2474
      5 O         137.8002  139.3661  166.6743 O.2     1  UNL1       -0.2701
      6 C         140.2558  139.1298  166.0688 C.ar    1  UNL1        0.0690
      7 C         139.6104  138.7547  164.7678 C.ar    1  UNL1        0.0260
      8 C         140.4600  138.3827  163.5890 C.ar    1  UNL1        0.1262
      9 C         141.9550  138.3858  163.7112 C.ar    1  UNL1        0.0328
     10 C         142.6004  138.7609  165.0122 C.ar    1  UNL1        0.0726
     11 CL        144.0954  138.7641  165.1344 Cl      1  UNL1       -0.0809
     12 C         141.7508  139.1329  166.1910 C.ar    1  UNL1        0.0655
     13 N         142.5906  139.4722  167.3867 N.am    1  UNL1       -0.2819
     14 C         142.1431  139.8920  168.7554 C.2     1  UNL1        0.2420
     15 O         143.2383  140.1634  169.7436 O.2     1  UNL1       -0.2731
     16 H         138.6336  140.0613  169.0584 H       1  UNL1        0.1501
     17 H         143.5645  139.4112  167.2558 H       1  UNL1        0.1549
     18 S         139.8147  138.0075  162.2878 S.O2    1  UNL1        0.0737
     19 O         138.4793  137.9452  162.9682 O.2     1  UNL1       -0.1499
     20 O         141.1500  138.0698  161.6075 O.2     1  UNL1       -0.1499
     21 N         139.1693  137.6324  160.9868 N.pl3   1  UNL1       -0.2128
     22 H         138.8000  136.7282  160.8632 H       1  UNL1        0.1738
     23 C         139.0866  138.6349  159.8740 C.ar    1  UNL1        0.0923
     24 C         139.9074  138.4470  158.6327 C.ar    1  UNL1        0.0204
     25 C         139.8247  139.4494  157.5200 C.ar    1  UNL1        0.0311
     26 C         138.9213  140.6399  157.6487 C.ar    1  UNL1        0.1425
     27 F         138.8386  141.6424  156.5359 F       1  UNL1       -0.2041
     28 C         138.1005  140.8279  158.8900 C.ar    1  UNL1        0.0606
     29 C         138.1832  139.8254  160.0027 C.ar    1  UNL1        0.1568
     30 F         137.3624  140.0133  161.2441 F       1  UNL1       -0.2027
     31 C         141.0992  141.4278  171.4570 C.3     1  UNL1        0.0022
     32 C         141.5847  140.4156  170.4622 C.3     1  UNL1        0.0269
@<TRIPOS>BOND
     1    31    32    1
     2    32     1    1
     3     1     2    1
     4     1     3    1
     5     3     4   am
     6     4     5    2
     7     4     6    1
     8     6     7   ar
     9     7     8   ar
    10     8    18    1
    11    18    19    2
    12    18    20    2
    13    18    21    1
    14    21    23    1
    15    23    24   ar
    16    24    25   ar
    17    25    26   ar
    18    26    27    1
    19    26    28   ar
    20    28    29   ar
    21    29    30    1
    22     8     9   ar
    23     9    10   ar
    24    10    11    1
    25    10    12   ar
    26    12    13    1
    27    13    14   am
    28    14    15    2
    29    14     1    1
    30    12     6   ar
    31    29    23   ar
    32     3    16    1
    33    21    22    1
    34    13    17    1
@<TRIPOS>MOLECULE
*****
 32 34 0 0 0
SMALL
GASTEIGER

@<TRIPOS>ATOM
      1 C         141.4878  140.6601  167.7405 C.3     1  UNL1        0.1261
      2 C         140.5403  140.8469  168.8883 C.3     1  UNL1        0.0290
      3 N         140.6397  141.8120  167.2890 N.am    1  UNL1       -0.2963
      4 C         140.7194  142.5859  166.0065 C.2     1  UNL1        0.2474
      5 O         139.7194  143.6931  165.8513 O.2     1  UNL1       -0.2701
      6 C         141.6669  142.3991  164.8588 C.ar    1  UNL1        0.0690
      7 C         141.4046  143.3909  163.7645 C.ar    1  UNL1        0.0260
      8 C         142.2441  143.3759  162.5216 C.ar    1  UNL1        0.1262
      9 C         143.3459  142.3689  162.3728 C.ar    1  UNL1        0.0328
     10 C         143.6082  141.3771  163.4671 C.ar    1  UNL1        0.0726
     11 CL        144.7100  140.3701  163.3183 Cl      1  UNL1       -0.0809
     12 C         142.7687  141.3921  164.7100 C.ar    1  UNL1        0.0655
     13 N         143.1951  140.3234  165.6723 N.am    1  UNL1       -0.2819
     14 C         142.6251  139.9976  167.0210 C.2     1  UNL1        0.2420
     15 O         143.2787  138.8587  167.7460 O.2     1  UNL1       -0.2731
     16 H         139.9379  142.0980  167.9175 H       1  UNL1        0.1501
     17 H         143.9488  139.7614  165.3801 H       1  UNL1        0.1549
     18 S         141.9818  144.3678  161.4273 S.O2    1  UNL1        0.0737
     19 O         140.8721  144.9686  162.2380 O.2     1  UNL1       -0.1499
     20 O         143.0916  143.7669  160.6166 O.2     1  UNL1       -0.1499
     21 N         141.7195  145.3596  160.3331 N.pl3   1  UNL1       -0.2128
     22 H         141.9770  146.3025  160.4512 H       1  UNL1        0.1738
     23 C         141.0648  144.9150  159.0588 C.ar    1  UNL1        0.0923
     24 C         139.9666  143.8940  159.0964 C.ar    1  UNL1        0.0204
     25 C         139.3120  143.4494  157.8221 C.ar    1  UNL1        0.0311
     26 C         139.7556  144.0257  156.5103 C.ar    1  UNL1        0.1425
     27 F         139.1010  143.5811  155.2360 F       1  UNL1       -0.2041
     28 C         140.8539  145.0467  156.4727 C.ar    1  UNL1        0.0606
     29 C         141.5085  145.4913  157.7469 C.ar    1  UNL1        0.1568
     30 F         142.6068  146.5123  157.7093 F       1  UNL1       -0.2027
     31 C         141.3041  139.5278  170.0716 C.3     1  UNL1        0.0022
     32 C         141.9142  139.5914  168.7028 C.3     1  UNL1        0.0269
@<TRIPOS>BOND
     1    31    32    1
     2    32     1    1
     3     1     2    1
     4     1     3    1
     5     3     4   am
     6     4     5    2
     7     4     6    1
     8     6     7   ar
     9     7     8   ar
    10     8    18    1
    11    18    19    2
    12    18    20    2
    13    18    21    1
    14    21    23    1
    15    23    24   ar
    16    24    25   ar
    17    25    26   ar
    18    26    27    1
    19    26    28   ar
    20    28    29   ar
    21    29    30    1
    22     8     9   ar
    23     9    10   ar
    24    10    11    1
    25    10    12   ar
    26    12    13    1
    27    13    14   am
    28    14    15    2
    29    14     1    1
    30    12     6   ar
    31    29    23   ar
    32     3    16    1
    33    21    22    1
    34    13    17    1
@<TRIPOS>MOLECULE
*****
 32 34 0 0 0
SMALL
GASTEIGER

@<TRIPOS>ATOM
      1 C         142.0545  141.6384  168.6518 C.3     1  UNL1        0.1261
      2 C         143.3138  142.4163  168.8947 C.3     1  UNL1        0.0290
      3 N         142.7469  141.5759  167.3226 N.am    1  UNL1       -0.2963
      4 C         142.2922  140.9020  166.0621 C.2     1  UNL1        0.2474
      5 O         143.2196  141.0217  164.8892 O.2     1  UNL1       -0.2701
      6 C         141.0328  140.1242  165.8192 C.ar    1  UNL1        0.0690
      7 C         140.9663  139.6151  164.4098 C.ar    1  UNL1        0.0260
      8 C         139.7840  138.8099  163.9583 C.ar    1  UNL1        0.1262
      9 C         138.6683  138.5139  164.9161 C.ar    1  UNL1        0.0328
     10 C         138.7348  139.0230  166.3255 C.ar    1  UNL1        0.0726
     11 CL        137.6190  138.7270  167.2833 Cl      1  UNL1       -0.0809
     12 C         139.9171  139.8282  166.7770 C.ar    1  UNL1        0.0655
     13 N         139.7852  140.2369  168.2143 N.am    1  UNL1       -0.2819
     14 C         140.7363  141.0425  169.0487 C.2     1  UNL1        0.2420
     15 O         140.3135  141.2842  170.4673 O.2     1  UNL1       -0.2731
     16 H         143.6145  142.0383  167.2708 H       1  UNL1        0.1501
     17 H         138.9659  139.9366  168.6702 H       1  UNL1        0.1549
     18 S         139.7175  138.3008  162.5489 S.O2    1  UNL1        0.0737
     19 O         138.4740  137.5324  162.8853 O.2     1  UNL1       -0.1499
     20 O         140.9610  139.0692  162.2125 O.2     1  UNL1       -0.1499
     21 N         139.6509  137.7916  161.1396 N.pl3   1  UNL1       -0.2128
     22 H         139.7817  136.8333  160.9557 H       1  UNL1        0.1738
     23 C         139.3850  138.7426  160.0103 C.ar    1  UNL1        0.0923
     24 C         138.1697  139.6213  160.0401 C.ar    1  UNL1        0.0204
     25 C         137.9039  140.5721  158.9109 C.ar    1  UNL1        0.0311
     26 C         138.8534  140.6443  157.7519 C.ar    1  UNL1        0.1425
     27 F         138.5875  141.5952  156.6226 F       1  UNL1       -0.2041
     28 C         140.0687  139.7656  157.7221 C.ar    1  UNL1        0.0606
     29 C         140.3345  138.8147  158.8513 C.ar    1  UNL1        0.1568
     30 F         141.5498  137.9359  158.8215 F       1  UNL1       -0.2027
     31 C         142.8193  143.1096  170.6520 C.3     1  UNL1        0.0022
     32 C         141.9225  142.0472  170.0890 C.3     1  UNL1        0.0269
@<TRIPOS>BOND
     1    31    32    1
     2    32     1    1
     3     1     2    1
     4     1     3    1
     5     3     4   am
     6     4     5    2
     7     4     6    1
     8     6     7   ar
     9     7     8   ar
    10     8    18    1
    11    18    19    2
    12    18    20    2
    13    18    21    1
    14    21    23    1
    15    23    24   ar
    16    24    25   ar
    17    25    26   ar
    18    26    27    1
    19    26    28   ar
    20    28    29   ar
    21    29    30    1
    22     8     9   ar
    23     9    10   ar
    24    10    11    1
    25    10    12   ar
    26    12    13    1
    27    13    14   am
    28    14    15    2
    29    14     1    1
    30    12     6   ar
    31    29    23   ar
    32     3    16    1
    33    21    22    1
    34    13    17    1
@<TRIPOS>MOLECULE
*****
 32 34 0 0 0
SMALL
GASTEIGER

@<TRIPOS>ATOM
      1 C         139.3393  139.3070  159.1416 C.3     1  UNL1        0.1261
      2 C         139.8479  138.2199  158.2418 C.3     1  UNL1        0.0290
      3 N         140.0058  138.3651  160.1000 N.am    1  UNL1       -0.2963
      4 C         140.1324  138.4817  161.5901 C.2     1  UNL1        0.2474
      5 O         140.8645  137.3631  162.2705 O.2     1  UNL1       -0.2701
      6 C         139.6238  139.5688  162.4898 C.ar    1  UNL1        0.0690
      7 C         139.9663  139.2977  163.9248 C.ar    1  UNL1        0.0260
      8 C         139.5480  140.2657  164.9915 C.ar    1  UNL1        0.1262
      9 C         138.7871  141.5048  164.6232 C.ar    1  UNL1        0.0328
     10 C         138.4446  141.7760  163.1883 C.ar    1  UNL1        0.0726
     11 CL        137.6837  143.0151  162.8201 Cl      1  UNL1       -0.0809
     12 C         138.8629  140.8080  162.1216 C.ar    1  UNL1        0.0655
     13 N         138.4228  141.2659  160.7627 N.am    1  UNL1       -0.2819
     14 C         138.6347  140.5980  159.4365 C.2     1  UNL1        0.2420
     15 O         138.0672  141.3159  158.2481 O.2     1  UNL1       -0.2731
     16 H         140.4142  137.5646  159.6979 H       1  UNL1        0.1501
     17 H         137.9295  142.1176  160.7380 H       1  UNL1        0.1549
     18 S         139.8905  139.9946  166.4265 S.O2    1  UNL1        0.0737
     19 O         138.4449  139.7231  166.7202 O.2     1  UNL1       -0.1499
     20 O         141.3362  140.2661  166.1328 O.2     1  UNL1       -0.1499
     21 N         140.2330  139.7234  167.8615 N.pl3   1  UNL1       -0.2128
     22 H         139.9400  138.8858  168.2877 H       1  UNL1        0.1738
     23 C         141.0219  140.7287  168.6471 C.ar    1  UNL1        0.0923
     24 C         140.4798  142.1119  168.8536 C.ar    1  UNL1        0.0204
     25 C         141.2687  143.1171  169.6392 C.ar    1  UNL1        0.0311
     26 C         142.5998  142.7390  170.2183 C.ar    1  UNL1        0.1425
     27 F         143.3887  143.7442  171.0040 F       1  UNL1       -0.2041
     28 C         143.1419  141.3557  170.0119 C.ar    1  UNL1        0.0606
     29 C         142.3530  140.3506  169.2262 C.ar    1  UNL1        0.1568
     30 F         142.8950  138.9672  169.0197 F       1  UNL1       -0.2027
     31 C         139.3782  139.0452  156.5570 C.3     1  UNL1        0.0022
     32 C         138.8991  139.7650  157.7827 C.3     1  UNL1        0.0269
@<TRIPOS>BOND
     1    31    32    1
     2    32     1    1
     3     1     2    1
     4     1     3    1
     5     3     4   am
     6     4     5    2
     7     4     6    1
     8     6     7   ar
     9     7     8   ar
    10     8    18    1
    11    18    19    2
    12    18    20    2
    13    18    21    1
    14    21    23    1
    15    23    24   ar
    16    24    25   ar
    17    25    26   ar
    18    26    27    1
    19    26    28   ar
    20    28    29   ar
    21    29    30    1
    22     8     9   ar
    23     9    10   ar
    24    10    11    1
    25    10    12   ar
    26    12    13    1
    27    13    14   am
    28    14    15    2
    29    14     1    1
    30    12     6   ar
    31    29    23   ar
    32     3    16    1
    33    21    22    1
    34    13    17    1
