@<TRIPOS>MOLECULE
*****
 29 33 0 0 0
SMALL
GASTEIGER

@<TRIPOS>ATOM
      1 C         142.1192  140.2182  166.8770 C.ar    1  UNL1       -0.0207
      2 C         140.7918  139.9048  166.2527 C.ar    1  UNL1       -0.0027
      3 C         140.3087  140.7023  165.0777 C.ar    1  UNL1        0.0188
      4 C         141.1529  141.8132  164.5271 C.ar    1  UNL1        0.0812
      5 N         140.6697  142.6107  163.3521 N.ar    1  UNL1       -0.2448
      6 C         141.5140  143.7216  162.8015 C.ar    1  UNL1        0.0888
      7 C         142.8414  144.0350  163.4259 C.ar    1  UNL1        0.0197
      8 C         143.3245  143.2375  164.6008 C.ar    1  UNL1        0.0030
      9 C         142.4803  142.1266  165.1514 C.ar    1  UNL1        0.0174
     10 C         142.9635  141.3291  166.3264 C.ar    1  UNL1       -0.0027
     11 C         141.0308  144.5191  161.6266 C.ar    1  UNL1        0.0676
     12 C         140.0010  145.6092  161.6643 C.ar    1  UNL1        0.1074
     13 N         139.8264  146.1304  160.2686 N.ar    1  UNL1       -0.2368
     14 C         140.7483  145.3624  159.3683 C.ar    1  UNL1        0.1108
     15 S         141.4926  144.3666  160.2076 S.2     1  UNL1       -0.0649
     16 C         140.8993  145.5562  157.8886 C.ar    1  UNL1        0.0238
     17 C         139.8619  146.3227  157.1229 C.ar    1  UNL1        0.0020
     18 C         140.0129  146.5166  155.6431 C.ar    1  UNL1        0.0001
     19 C         141.2012  145.9439  154.9291 C.ar    1  UNL1        0.0000
     20 C         142.2387  145.1773  155.6948 C.ar    1  UNL1        0.0001
     21 C         142.0876  144.9836  157.1745 C.ar    1  UNL1        0.0020
     22 C         142.6024  139.4207  168.0520 C.3     1  UNL1        0.0437
     23 C         142.0906  139.7275  169.4281 C.3     1  UNL1        0.0768
     24 C         143.8425  142.4562  169.7947 C.3     1  UNL1        0.0173
     25 C         142.3510  142.3442  169.9077 C.3     1  UNL1        0.0576
     26 C         141.4028  143.4668  170.2091 C.3     1  UNL1        0.0174
     27 C         140.0115  142.9063  170.2269 C.3     1  UNL1        0.0187
     28 C         140.0999  141.4373  169.9365 C.3     1  UNL1        0.0721
     29 N         141.5457  141.0900  169.7393 N.3     1  UNL1       -0.2737
@<TRIPOS>BOND
     1    25    24    1
     2    25    26    1
     3    26    27    1
     4    27    28    1
     5    28    29    1
     6    29    23    1
     7    23    22    1
     8    22     1    1
     9     1     2   ar
    10     2     3   ar
    11     3     4   ar
    12     4     5   ar
    13     5     6   ar
    14     6    11    1
    15    11    12   ar
    16    12    13   ar
    17    13    14   ar
    18    14    16    1
    19    16    17   ar
    20    17    18   ar
    21    18    19   ar
    22    19    20   ar
    23    20    21   ar
    24    14    15   ar
    25     6     7   ar
    26     7     8   ar
    27     8     9   ar
    28     9    10   ar
    29    29    25    1
    30    10     1   ar
    31     9     4   ar
    32    15    11   ar
    33    21    16   ar
@<TRIPOS>MOLECULE
*****
 29 33 0 0 0
SMALL
GASTEIGER

@<TRIPOS>ATOM
      1 C         139.3715  137.6427  164.4900 C.ar    1  UNL1       -0.0207
      2 C         140.8534  137.4798  164.6560 C.ar    1  UNL1       -0.0027
      3 C         141.7617  137.6297  163.4718 C.ar    1  UNL1        0.0188
      4 C         141.1882  137.9424  162.1215 C.ar    1  UNL1        0.0812
      5 N         142.0966  138.0923  160.9373 N.ar    1  UNL1       -0.2448
      6 C         141.5231  138.4051  159.5870 C.ar    1  UNL1        0.0888
      7 C         140.0412  138.5680  159.4210 C.ar    1  UNL1        0.0197
      8 C         139.1329  138.4181  160.6052 C.ar    1  UNL1        0.0030
      9 C         139.7064  138.1053  161.9555 C.ar    1  UNL1        0.0174
     10 C         138.7981  137.9554  163.1397 C.ar    1  UNL1       -0.0027
     11 C         142.4315  138.5550  158.4028 C.ar    1  UNL1        0.0676
     12 C         142.6816  137.5194  157.3468 C.ar    1  UNL1        0.1074
     13 N         143.6539  138.0911  156.3580 N.ar    1  UNL1       -0.2368
     14 C         144.0047  139.4801  156.8029 C.ar    1  UNL1        0.1108
     15 S         143.2492  139.7667  158.0666 S.2     1  UNL1       -0.0649
     16 C         144.9457  140.4178  156.1063 C.ar    1  UNL1        0.0238
     17 C         145.6586  141.4820  156.8868 C.ar    1  UNL1        0.0020
     18 C         146.5996  142.4197  156.1902 C.ar    1  UNL1        0.0001
     19 C         146.8278  142.2931  154.7131 C.ar    1  UNL1        0.0000
     20 C         146.1149  141.2289  153.9325 C.ar    1  UNL1        0.0001
     21 C         145.1739  140.2912  154.6291 C.ar    1  UNL1        0.0020
     22 C         138.4631  137.4928  165.6742 C.3     1  UNL1        0.0437
     23 C         138.0102  138.7064  166.4304 C.3     1  UNL1        0.0768
     24 C         138.2224  141.3024  164.4644 C.3     1  UNL1        0.0173
     25 C         139.0367  141.0645  165.7014 C.3     1  UNL1        0.0576
     26 C         140.0915  141.9779  166.2520 C.3     1  UNL1        0.0174
     27 C         140.6459  141.3492  167.4960 C.3     1  UNL1        0.0187
     28 C         139.9337  140.0471  167.7142 C.3     1  UNL1        0.0721
     29 N         138.9392  139.8712  166.6051 N.3     1  UNL1       -0.2737
@<TRIPOS>BOND
     1    25    24    1
     2    25    26    1
     3    26    27    1
     4    27    28    1
     5    28    29    1
     6    29    23    1
     7    23    22    1
     8    22     1    1
     9     1     2   ar
    10     2     3   ar
    11     3     4   ar
    12     4     5   ar
    13     5     6   ar
    14     6    11    1
    15    11    12   ar
    16    12    13   ar
    17    13    14   ar
    18    14    16    1
    19    16    17   ar
    20    17    18   ar
    21    18    19   ar
    22    19    20   ar
    23    20    21   ar
    24    14    15   ar
    25     6     7   ar
    26     7     8   ar
    27     8     9   ar
    28     9    10   ar
    29    29    25    1
    30    10     1   ar
    31     9     4   ar
    32    15    11   ar
    33    21    16   ar
@<TRIPOS>MOLECULE
*****
 29 33 0 0 0
SMALL
GASTEIGER

@<TRIPOS>ATOM
      1 C         141.0864  145.5021  157.5454 C.ar    1  UNL1       -0.0207
      2 C         142.0971  144.3999  157.6629 C.ar    1  UNL1       -0.0027
      3 C         142.3855  143.7864  159.0009 C.ar    1  UNL1        0.0188
      4 C         141.6633  144.2751  160.2214 C.ar    1  UNL1        0.0812
      5 N         141.9518  143.6615  161.5595 N.ar    1  UNL1       -0.2448
      6 C         141.2296  144.1502  162.7800 C.ar    1  UNL1        0.0888
      7 C         140.2189  145.2524  162.6625 C.ar    1  UNL1        0.0197
      8 C         139.9305  145.8659  161.3244 C.ar    1  UNL1        0.0030
      9 C         140.6527  145.3772  160.1039 C.ar    1  UNL1        0.0174
     10 C         140.3642  145.9907  158.7659 C.ar    1  UNL1       -0.0027
     11 C         141.5180  143.5367  164.1181 C.ar    1  UNL1        0.0676
     12 C         142.8747  143.1858  164.6531 C.ar    1  UNL1        0.1074
     13 N         142.6956  142.5986  166.0217 N.ar    1  UNL1       -0.2368
     14 C         141.2282  142.5866  166.3325 C.ar    1  UNL1        0.1108
     15 S         140.5004  143.1664  165.1560 S.2     1  UNL1       -0.0649
     16 C         140.5990  142.0832  167.5977 C.ar    1  UNL1        0.0238
     17 C         140.0162  140.7020  167.6476 C.ar    1  UNL1        0.0020
     18 C         139.3871  140.1986  168.9128 C.ar    1  UNL1        0.0001
     19 C         139.3406  141.0765  170.1282 C.ar    1  UNL1        0.0000
     20 C         139.9234  142.4578  170.0784 C.ar    1  UNL1        0.0001
     21 C         140.5526  142.9611  168.8131 C.ar    1  UNL1        0.0020
     22 C         140.7980  146.1156  156.2073 C.3     1  UNL1        0.0437
     23 C         139.4170  146.6077  155.8898 C.3     1  UNL1        0.0768
     24 C         140.2989  148.4904  153.3745 C.3     1  UNL1        0.0173
     25 C         139.5627  148.9444  154.6000 C.3     1  UNL1        0.0576
     26 C         139.1026  150.3434  154.8844 C.3     1  UNL1        0.0174
     27 C         138.4128  150.3428  156.2165 C.3     1  UNL1        0.0187
     28 C         138.4467  148.9432  156.7553 C.3     1  UNL1        0.0721
     29 N         139.1573  148.0790  155.7561 N.3     1  UNL1       -0.2737
@<TRIPOS>BOND
     1    25    24    1
     2    25    26    1
     3    26    27    1
     4    27    28    1
     5    28    29    1
     6    29    23    1
     7    23    22    1
     8    22     1    1
     9     1     2   ar
    10     2     3   ar
    11     3     4   ar
    12     4     5   ar
    13     5     6   ar
    14     6    11    1
    15    11    12   ar
    16    12    13   ar
    17    13    14   ar
    18    14    16    1
    19    16    17   ar
    20    17    18   ar
    21    18    19   ar
    22    19    20   ar
    23    20    21   ar
    24    14    15   ar
    25     6     7   ar
    26     7     8   ar
    27     8     9   ar
    28     9    10   ar
    29    29    25    1
    30    10     1   ar
    31     9     4   ar
    32    15    11   ar
    33    21    16   ar
@<TRIPOS>MOLECULE
*****
 29 33 0 0 0
SMALL
GASTEIGER

@<TRIPOS>ATOM
      1 C         142.0670  137.7394  157.8500 C.ar    1  UNL1       -0.0207
      2 C         140.6313  138.1737  157.8499 C.ar    1  UNL1       -0.0027
      3 C         139.9592  138.5422  159.1392 C.ar    1  UNL1        0.0188
      4 C         140.7227  138.4763  160.4287 C.ar    1  UNL1        0.0812
      5 N         140.0505  138.8448  161.7180 N.ar    1  UNL1       -0.2448
      6 C         140.8141  138.7790  163.0075 C.ar    1  UNL1        0.0888
      7 C         142.2499  138.3446  163.0075 C.ar    1  UNL1        0.0197
      8 C         142.9220  137.9762  161.7182 C.ar    1  UNL1        0.0030
      9 C         142.1585  138.0420  160.4288 C.ar    1  UNL1        0.0174
     10 C         142.8306  137.6735  159.1395 C.ar    1  UNL1       -0.0027
     11 C         140.1419  139.1475  164.2968 C.ar    1  UNL1        0.0676
     12 C         138.7912  138.6800  164.7520 C.ar    1  UNL1        0.1074
     13 N         138.5169  139.2917  166.0938 N.ar    1  UNL1       -0.2368
     14 C         139.6981  140.1373  166.4679 C.ar    1  UNL1        0.1108
     15 S         140.7024  140.0481  165.3573 S.2     1  UNL1       -0.0649
     16 C         139.8486  140.9324  167.7309 C.ar    1  UNL1        0.0238
     17 C         140.4434  142.3086  167.6844 C.ar    1  UNL1        0.0020
     18 C         140.5938  143.1038  168.9474 C.ar    1  UNL1        0.0001
     19 C         140.1496  142.5226  170.2570 C.ar    1  UNL1        0.0000
     20 C         139.5548  141.1463  170.3035 C.ar    1  UNL1        0.0001
     21 C         139.4044  140.3513  169.0405 C.ar    1  UNL1        0.0020
     22 C         142.7393  137.3709  156.5607 C.3     1  UNL1        0.0437
     23 C         143.5541  136.1147  156.4720 C.3     1  UNL1        0.0768
     24 C         144.4500  133.2269  157.6997 C.3     1  UNL1        0.0173
     25 C         143.2914  133.4724  156.7791 C.3     1  UNL1        0.0576
     26 C         142.3412  132.4336  156.2613 C.3     1  UNL1        0.0174
     27 C         141.3422  133.1191  155.3769 C.3     1  UNL1        0.0187
     28 C         141.6749  134.5815  155.3482 C.3     1  UNL1        0.0721
     29 N         142.8796  134.7997  156.2148 N.3     1  UNL1       -0.2737
@<TRIPOS>BOND
     1    25    24    1
     2    25    26    1
     3    26    27    1
     4    27    28    1
     5    28    29    1
     6    29    23    1
     7    23    22    1
     8    22     1    1
     9     1     2   ar
    10     2     3   ar
    11     3     4   ar
    12     4     5   ar
    13     5     6   ar
    14     6    11    1
    15    11    12   ar
    16    12    13   ar
    17    13    14   ar
    18    14    16    1
    19    16    17   ar
    20    17    18   ar
    21    18    19   ar
    22    19    20   ar
    23    20    21   ar
    24    14    15   ar
    25     6     7   ar
    26     7     8   ar
    27     8     9   ar
    28     9    10   ar
    29    29    25    1
    30    10     1   ar
    31     9     4   ar
    32    15    11   ar
    33    21    16   ar
@<TRIPOS>MOLECULE
*****
 29 33 0 0 0
SMALL
GASTEIGER

@<TRIPOS>ATOM
      1 C         142.7182  138.4843  165.2866 C.ar    1  UNL1       -0.0207
      2 C         141.5733  137.6013  164.8875 C.ar    1  UNL1       -0.0027
      3 C         141.3032  137.3334  163.4365 C.ar    1  UNL1        0.0188
      4 C         142.1780  137.9486  162.3847 C.ar    1  UNL1        0.0812
      5 N         141.9078  137.6807  160.9337 N.ar    1  UNL1       -0.2448
      6 C         142.7826  138.2959  159.8819 C.ar    1  UNL1        0.0888
      7 C         143.9276  139.1790  160.2811 C.ar    1  UNL1        0.0197
      8 C         144.1977  139.4469  161.7321 C.ar    1  UNL1        0.0030
      9 C         143.3229  138.8317  162.7839 C.ar    1  UNL1        0.0174
     10 C         143.5930  139.0995  164.2348 C.ar    1  UNL1       -0.0027
     11 C         142.5125  138.0281  158.4310 C.ar    1  UNL1        0.0676
     12 C         142.1192  139.0485  157.4043 C.ar    1  UNL1        0.1074
     13 N         141.9518  138.3439  156.0908 N.ar    1  UNL1       -0.2368
     14 C         142.2418  136.8879  156.3056 C.ar    1  UNL1        0.1108
     15 S         142.5883  136.6928  157.7520 S.2     1  UNL1       -0.0649
     16 C         142.1937  135.8154  155.2581 C.ar    1  UNL1        0.0238
     17 C         142.5809  134.4087  155.6065 C.ar    1  UNL1        0.0020
     18 C         142.5328  133.3362  154.5589 C.ar    1  UNL1        0.0001
     19 C         142.0975  133.6703  153.1629 C.ar    1  UNL1        0.0000
     20 C         141.7102  135.0770  152.8144 C.ar    1  UNL1        0.0001
     21 C         141.7584  136.1495  153.8620 C.ar    1  UNL1        0.0020
     22 C         142.9884  138.7522  166.7376 C.3     1  UNL1        0.0437
     23 C         142.5649  140.0536  167.3515 C.3     1  UNL1        0.0768
     24 C         139.3907  140.1895  166.6063 C.3     1  UNL1        0.0173
     25 C         139.9707  140.1487  167.9890 C.3     1  UNL1        0.0576
     26 C         139.1935  140.1633  169.2719 C.3     1  UNL1        0.0174
     27 C         140.1723  140.1098  170.4074 C.3     1  UNL1        0.0187
     28 C         141.5544  140.0622  169.8262 C.3     1  UNL1        0.0721
     29 N         141.4297  140.0863  168.3315 N.3     1  UNL1       -0.2737
@<TRIPOS>BOND
     1    25    24    1
     2    25    26    1
     3    26    27    1
     4    27    28    1
     5    28    29    1
     6    29    23    1
     7    23    22    1
     8    22     1    1
     9     1     2   ar
    10     2     3   ar
    11     3     4   ar
    12     4     5   ar
    13     5     6   ar
    14     6    11    1
    15    11    12   ar
    16    12    13   ar
    17    13    14   ar
    18    14    16    1
    19    16    17   ar
    20    17    18   ar
    21    18    19   ar
    22    19    20   ar
    23    20    21   ar
    24    14    15   ar
    25     6     7   ar
    26     7     8   ar
    27     8     9   ar
    28     9    10   ar
    29    29    25    1
    30    10     1   ar
    31     9     4   ar
    32    15    11   ar
    33    21    16   ar
@<TRIPOS>MOLECULE
*****
 29 33 0 0 0
SMALL
GASTEIGER

@<TRIPOS>ATOM
      1 C         140.8002  146.0795  156.0624 C.ar    1  UNL1       -0.0207
      2 C         141.9662  145.2128  155.6892 C.ar    1  UNL1       -0.0027
      3 C         142.6719  144.4108  156.7422 C.ar    1  UNL1        0.0188
      4 C         142.2116  144.4755  158.1683 C.ar    1  UNL1        0.0812
      5 N         142.9173  143.6734  159.2213 N.ar    1  UNL1       -0.2448
      6 C         142.4571  143.7381  160.6475 C.ar    1  UNL1        0.0888
      7 C         141.2910  144.6048  161.0207 C.ar    1  UNL1        0.0197
      8 C         140.5853  145.4068  159.9677 C.ar    1  UNL1        0.0030
      9 C         141.0456  145.3421  158.5415 C.ar    1  UNL1        0.0174
     10 C         140.3399  146.1441  157.4886 C.ar    1  UNL1       -0.0027
     11 C         143.1628  142.9361  161.7004 C.ar    1  UNL1        0.0676
     12 C         144.6447  142.7296  161.8059 C.ar    1  UNL1        0.1074
     13 N         144.9083  141.8657  163.0035 N.ar    1  UNL1       -0.2368
     14 C         143.5891  141.5382  163.6381 C.ar    1  UNL1        0.1108
     15 S         142.5104  142.1997  162.8327 S.2     1  UNL1       -0.0649
     16 C         143.3847  140.6968  164.8630 C.ar    1  UNL1        0.0238
     17 C         143.8175  139.2607  164.8672 C.ar    1  UNL1        0.0020
     18 C         143.6131  138.4193  166.0921 C.ar    1  UNL1        0.0001
     19 C         142.9758  139.0141  167.3128 C.ar    1  UNL1        0.0000
     20 C         142.5430  140.4504  167.3086 C.ar    1  UNL1        0.0001
     21 C         142.7475  141.2917  166.0837 C.ar    1  UNL1        0.0020
     22 C         140.0944  146.8815  155.0095 C.3     1  UNL1        0.0437
     23 C         138.8873  147.6955  155.3702 C.3     1  UNL1        0.0768
     24 C         138.0563  149.7229  157.7885 C.3     1  UNL1        0.0173
     25 C         138.5704  150.1254  156.4382 C.3     1  UNL1        0.0576
     26 C         138.7928  151.5304  155.9623 C.3     1  UNL1        0.0174
     27 C         139.3123  151.4669  154.5565 C.3     1  UNL1        0.0187
     28 C         139.4109  150.0225  154.1636 C.3     1  UNL1        0.0721
     29 N         138.9524  149.1935  155.3265 N.3     1  UNL1       -0.2737
@<TRIPOS>BOND
     1    25    24    1
     2    25    26    1
     3    26    27    1
     4    27    28    1
     5    28    29    1
     6    29    23    1
     7    23    22    1
     8    22     1    1
     9     1     2   ar
    10     2     3   ar
    11     3     4   ar
    12     4     5   ar
    13     5     6   ar
    14     6    11    1
    15    11    12   ar
    16    12    13   ar
    17    13    14   ar
    18    14    16    1
    19    16    17   ar
    20    17    18   ar
    21    18    19   ar
    22    19    20   ar
    23    20    21   ar
    24    14    15   ar
    25     6     7   ar
    26     7     8   ar
    27     8     9   ar
    28     9    10   ar
    29    29    25    1
    30    10     1   ar
    31     9     4   ar
    32    15    11   ar
    33    21    16   ar
@<TRIPOS>MOLECULE
*****
 29 33 0 0 0
SMALL
GASTEIGER

@<TRIPOS>ATOM
      1 C         140.0128  140.4258  167.0958 C.ar    1  UNL1       -0.0207
      2 C         140.5067  139.3895  166.1304 C.ar    1  UNL1       -0.0027
      3 C         140.9620  139.7971  164.7606 C.ar    1  UNL1        0.0188
      4 C         140.9234  141.2411  164.3561 C.ar    1  UNL1        0.0812
      5 N         141.3787  141.6486  162.9862 N.ar    1  UNL1       -0.2448
      6 C         141.3402  143.0926  162.5818 C.ar    1  UNL1        0.0888
      7 C         140.8462  144.1289  163.5473 C.ar    1  UNL1        0.0197
      8 C         140.3909  143.7213  164.9171 C.ar    1  UNL1        0.0030
      9 C         140.4295  142.2774  165.3215 C.ar    1  UNL1        0.0174
     10 C         139.9742  141.8698  166.6914 C.ar    1  UNL1       -0.0027
     11 C         141.7955  143.5002  161.2119 C.ar    1  UNL1        0.0676
     12 C         141.4382  144.7752  160.5071 C.ar    1  UNL1        0.1074
     13 N         142.1099  144.7674  159.1659 N.ar    1  UNL1       -0.2368
     14 C         142.8823  143.4875  159.0419 C.ar    1  UNL1        0.1108
     15 S         142.6880  142.7044  160.3064 S.2     1  UNL1       -0.0649
     16 C         143.7048  143.0650  157.8607 C.ar    1  UNL1        0.0238
     17 C         145.0763  142.4939  158.0675 C.ar    1  UNL1        0.0020
     18 C         145.8987  142.0714  156.8863 C.ar    1  UNL1        0.0001
     19 C         145.3496  142.2200  155.4984 C.ar    1  UNL1        0.0000
     20 C         143.9780  142.7910  155.2915 C.ar    1  UNL1        0.0001
     21 C         143.1556  143.2135  156.4728 C.ar    1  UNL1        0.0020
     22 C         139.5575  140.0183  168.4657 C.3     1  UNL1        0.0437
     23 C         140.5433  139.9491  169.5941 C.3     1  UNL1        0.0768
     24 C         139.9168  143.0190  170.5064 C.3     1  UNL1        0.0173
     25 C         141.2690  142.4514  170.1917 C.3     1  UNL1        0.0576
     26 C         142.5707  143.1951  170.2410 C.3     1  UNL1        0.0174
     27 C         143.6633  142.2437  169.8522 C.3     1  UNL1        0.0187
     28 C         143.0367  140.9119  169.5625 C.3     1  UNL1        0.0721
     29 N         141.5571  141.0403  169.7723 N.3     1  UNL1       -0.2737
@<TRIPOS>BOND
     1    25    24    1
     2    25    26    1
     3    26    27    1
     4    27    28    1
     5    28    29    1
     6    29    23    1
     7    23    22    1
     8    22     1    1
     9     1     2   ar
    10     2     3   ar
    11     3     4   ar
    12     4     5   ar
    13     5     6   ar
    14     6    11    1
    15    11    12   ar
    16    12    13   ar
    17    13    14   ar
    18    14    16    1
    19    16    17   ar
    20    17    18   ar
    21    18    19   ar
    22    19    20   ar
    23    20    21   ar
    24    14    15   ar
    25     6     7   ar
    26     7     8   ar
    27     8     9   ar
    28     9    10   ar
    29    29    25    1
    30    10     1   ar
    31     9     4   ar
    32    15    11   ar
    33    21    16   ar
@<TRIPOS>MOLECULE
*****
 29 33 0 0 0
SMALL
GASTEIGER

@<TRIPOS>ATOM
      1 C         141.5654  138.1111  158.3311 C.ar    1  UNL1       -0.0207
      2 C         140.2476  138.4163  158.9793 C.ar    1  UNL1       -0.0027
      3 C         140.1825  138.6934  160.4520 C.ar    1  UNL1        0.0188
      4 C         141.4352  138.6654  161.2765 C.ar    1  UNL1        0.0812
      5 N         141.3701  138.9425  162.7493 N.ar    1  UNL1       -0.2448
      6 C         142.6228  138.9144  163.5738 C.ar    1  UNL1        0.0888
      7 C         143.9407  138.6092  162.9256 C.ar    1  UNL1        0.0197
      8 C         144.0058  138.3321  161.4529 C.ar    1  UNL1        0.0030
      9 C         142.7531  138.3601  160.6283 C.ar    1  UNL1        0.0174
     10 C         142.8181  138.0830  159.1556 C.ar    1  UNL1       -0.0027
     11 C         142.5577  139.1916  165.0465 C.ar    1  UNL1        0.0676
     12 C         143.4078  138.5500  166.1029 C.ar    1  UNL1        0.1074
     13 N         143.0066  139.1208  167.4307 N.ar    1  UNL1       -0.2368
     14 C         141.9085  140.1152  167.1950 C.ar    1  UNL1        0.1108
     15 S         141.6311  140.1589  165.7215 S.2     1  UNL1       -0.0649
     16 C         141.2104  140.9239  168.2480 C.ar    1  UNL1        0.0238
     17 C         140.0839  140.3202  169.0331 C.ar    1  UNL1        0.0020
     18 C         139.3858  141.1289  170.0861 C.ar    1  UNL1        0.0001
     19 C         139.8142  142.5413  170.3539 C.ar    1  UNL1        0.0000
     20 C         140.9408  143.1450  169.5687 C.ar    1  UNL1        0.0001
     21 C         141.6389  142.3362  168.5158 C.ar    1  UNL1        0.0020
     22 C         141.6305  137.8340  156.8583 C.3     1  UNL1        0.0437
     23 C         142.7517  137.0091  156.2992 C.3     1  UNL1        0.0768
     24 C         140.9949  135.1769  154.2484 C.3     1  UNL1        0.0173
     25 C         141.8527  134.6698  155.3696 C.3     1  UNL1        0.0576
     26 C         142.0535  133.2314  155.7449 C.3     1  UNL1        0.0174
     27 C         142.9852  133.1847  156.9196 C.3     1  UNL1        0.0187
     28 C         143.3602  134.5942  157.2702 C.3     1  UNL1        0.0721
     29 N         142.6602  135.5119  156.3122 N.3     1  UNL1       -0.2737
@<TRIPOS>BOND
     1    25    24    1
     2    25    26    1
     3    26    27    1
     4    27    28    1
     5    28    29    1
     6    29    23    1
     7    23    22    1
     8    22     1    1
     9     1     2   ar
    10     2     3   ar
    11     3     4   ar
    12     4     5   ar
    13     5     6   ar
    14     6    11    1
    15    11    12   ar
    16    12    13   ar
    17    13    14   ar
    18    14    16    1
    19    16    17   ar
    20    17    18   ar
    21    18    19   ar
    22    19    20   ar
    23    20    21   ar
    24    14    15   ar
    25     6     7   ar
    26     7     8   ar
    27     8     9   ar
    28     9    10   ar
    29    29    25    1
    30    10     1   ar
    31     9     4   ar
    32    15    11   ar
    33    21    16   ar
@<TRIPOS>MOLECULE
*****
 29 33 0 0 0
SMALL
GASTEIGER

@<TRIPOS>ATOM
      1 C         139.7595  142.7342  165.0201 C.ar    1  UNL1       -0.0207
      2 C         138.3730  142.6794  164.4503 C.ar    1  UNL1       -0.0027
      3 C         138.1389  143.0338  163.0118 C.ar    1  UNL1        0.0188
      4 C         139.2912  143.4429  162.1429 C.ar    1  UNL1        0.0812
      5 N         139.0570  143.7973  160.7043 N.ar    1  UNL1       -0.2448
      6 C         140.2093  144.2064  159.8355 C.ar    1  UNL1        0.0888
      7 C         141.5958  144.2611  160.4053 C.ar    1  UNL1        0.0197
      8 C         141.8300  143.9067  161.8439 C.ar    1  UNL1        0.0030
      9 C         140.6777  143.4976  162.7127 C.ar    1  UNL1        0.0174
     10 C         140.9118  143.1433  164.1513 C.ar    1  UNL1       -0.0027
     11 C         139.9751  144.5608  158.3969 C.ar    1  UNL1        0.0676
     12 C         139.4943  143.6271  157.3258 C.ar    1  UNL1        0.1074
     13 N         139.4027  144.4003  156.0438 N.ar    1  UNL1       -0.2368
     14 C         139.8268  145.8119  156.3225 C.ar    1  UNL1        0.1108
     15 S         140.1806  145.9110  157.7768 S.2     1  UNL1       -0.0649
     16 C         139.8867  146.9283  155.3224 C.ar    1  UNL1        0.0238
     17 C         139.1676  148.2166  155.5926 C.ar    1  UNL1        0.0020
     18 C         139.2274  149.3330  154.5925 C.ar    1  UNL1        0.0001
     19 C         140.0065  149.1611  153.3223 C.ar    1  UNL1        0.0000
     20 C         140.7257  147.8727  153.0521 C.ar    1  UNL1        0.0001
     21 C         140.6658  146.7564  154.0522 C.ar    1  UNL1        0.0020
     22 C         139.9937  142.3798  166.4587 C.3     1  UNL1        0.0437
     23 C         140.7712  141.1461  166.8103 C.3     1  UNL1        0.0768
     24 C         138.1726  139.2354  166.3146 C.3     1  UNL1        0.0173
     25 C         139.5237  139.0668  165.6853 C.3     1  UNL1        0.0576
     26 C         139.9175  137.9905  164.7177 C.3     1  UNL1        0.0174
     27 C         141.3555  138.2035  164.3475 C.3     1  UNL1        0.0187
     28 C         141.8503  139.4116  165.0864 C.3     1  UNL1        0.0721
     29 N         140.7181  139.9451  165.9131 N.3     1  UNL1       -0.2737
@<TRIPOS>BOND
     1    25    24    1
     2    25    26    1
     3    26    27    1
     4    27    28    1
     5    28    29    1
     6    29    23    1
     7    23    22    1
     8    22     1    1
     9     1     2   ar
    10     2     3   ar
    11     3     4   ar
    12     4     5   ar
    13     5     6   ar
    14     6    11    1
    15    11    12   ar
    16    12    13   ar
    17    13    14   ar
    18    14    16    1
    19    16    17   ar
    20    17    18   ar
    21    18    19   ar
    22    19    20   ar
    23    20    21   ar
    24    14    15   ar
    25     6     7   ar
    26     7     8   ar
    27     8     9   ar
    28     9    10   ar
    29    29    25    1
    30    10     1   ar
    31     9     4   ar
    32    15    11   ar
    33    21    16   ar
