@<TRIPOS>MOLECULE
*****
 35 38 0 0 0
SMALL
GASTEIGER

@<TRIPOS>ATOM
      1 N         140.0110  139.2806  163.4723 N.am    1  UNL1       -0.2987
      2 C         140.5639  138.2145  162.5735 C.2     1  UNL1        0.2472
      3 O         140.9126  136.8677  163.1340 O.2     1  UNL1       -0.2701
      4 H         139.7821  140.1647  163.1044 H       1  UNL1        0.1500
      5 C         140.7680  138.4953  161.1142 C.ar    1  UNL1        0.0690
      6 C         142.0212  138.2332  160.3327 C.ar    1  UNL1        0.0275
      7 C         141.7823  138.6634  158.9157 C.ar    1  UNL1        0.1142
      8 N         140.3815  139.1914  158.8214 N.ar    1  UNL1       -0.3223
      9 C         139.7545  139.0875  160.1802 C.ar    1  UNL1        0.0717
     10 C         138.3419  139.5455  160.3914 C.3     1  UNL1        0.1857
     11 O         137.5562  140.1074  159.2439 O.3     1  UNL1       -0.3454
     12 C         138.1832  140.2113  157.8851 C.3     1  UNL1        0.1671
     13 C         139.5958  139.7533  157.6739 C.3     1  UNL1        0.1379
     14 C         142.7708  138.5803  157.7905 C.2     1  UNL1        0.2649
     15 O         143.9434  139.5148  157.7518 O.2     1  UNL1       -0.2683
     16 N         142.5866  137.5626  156.7040 N.am    1  UNL1       -0.2765
     17 C         141.4689  136.5668  156.6091 C.3     1  UNL1        0.0937
     18 C         141.6792  135.7508  155.3682 C.3     1  UNL1        0.0232
     19 C         142.9269  136.2423  154.6961 C.3     1  UNL1        0.0216
     20 C         143.4877  137.3621  155.5218 C.3     1  UNL1        0.0758
     21 C         144.7312  138.1441  155.2184 C.3     1  UNL1        0.0215
     22 C         139.8070  138.9998  164.9316 C.3     1  UNL1        0.0944
     23 C         140.6648  139.6842  165.9541 C.ar    1  UNL1       -0.0037
     24 C         141.9991  139.1058  166.3221 C.ar    1  UNL1       -0.0027
     25 C         142.8569  139.7902  167.3447 C.ar    1  UNL1        0.0044
     26 C         142.3806  141.0529  167.9993 C.ar    1  UNL1        0.0819
     27 C         141.0463  141.6313  167.6314 C.ar    1  UNL1        0.0613
     28 CL        140.5701  142.8940  168.2861 Cl      1  UNL1       -0.0823
     29 C         140.1885  140.9469  166.6088 C.ar    1  UNL1        0.0087
     30 C         143.2384  141.7373  169.0219 C.3     1  UNL1        0.4194
     31 F         144.0963  142.4216  170.0445 F       1  UNL1       -0.1658
     32 F         143.7706  142.6549  167.9614 F       1  UNL1       -0.1658
     33 F         142.7063  140.8196  170.0824 F       1  UNL1       -0.1658
     34 C         137.8639  138.3668  166.5358 C.3     1  UNL1        0.0021
     35 C         138.7450  138.0347  165.3682 C.3     1  UNL1        0.0241
@<TRIPOS>BOND
     1    34    35    1
     2    22    35    1
     3    22     1    1
     4     1     2   am
     5     2     3    2
     6     2     5    1
     7     5     6   ar
     8     6     7   ar
     9     7    14    1
    10    14    15    2
    11    14    16   am
    12    16    17    1
    13    17    18    1
    14    18    19    1
    15    19    20    1
    16    20    21    1
    17     7     8   ar
    18     8     9   ar
    19     9    10    1
    20    10    11    1
    21    11    12    1
    22    12    13    1
    23    22    23    1
    24    23    24   ar
    25    24    25   ar
    26    25    26   ar
    27    26    30    1
    28    30    31    1
    29    30    32    1
    30    30    33    1
    31    26    27   ar
    32    27    28    1
    33    27    29   ar
    34     9     5   ar
    35    29    23   ar
    36    20    16    1
    37    13     8    1
    38     1     4    1
@<TRIPOS>MOLECULE
*****
 35 38 0 0 0
SMALL
GASTEIGER

@<TRIPOS>ATOM
      1 N         142.6582  141.4773  163.4605 N.am    1  UNL1       -0.2987
      2 C         142.1922  142.3121  162.3046 C.2     1  UNL1        0.2472
      3 O         142.3685  143.8013  162.3358 O.2     1  UNL1       -0.2701
      4 H         142.5425  140.4999  163.4400 H       1  UNL1        0.1500
      5 C         141.5498  141.6576  161.1175 C.ar    1  UNL1        0.0690
      6 C         140.1977  141.9832  160.5555 C.ar    1  UNL1        0.0275
      7 C         139.9591  141.0894  159.3748 C.ar    1  UNL1        0.1142
      8 N         141.1637  140.2114  159.2071 N.ar    1  UNL1       -0.3223
      9 C         142.1468  140.5626  160.2842 C.ar    1  UNL1        0.0717
     10 C         143.4586  139.8399  160.3669 C.3     1  UNL1        0.1857
     11 O         143.7873  138.7661  159.3726 O.3     1  UNL1       -0.3454
     12 C         142.8042  138.4149  158.2955 C.3     1  UNL1        0.1671
     13 C         141.4924  139.1376  158.2127 C.3     1  UNL1        0.1379
     14 C         138.7314  141.0759  158.5130 C.2     1  UNL1        0.2649
     15 O         137.7135  139.9862  158.6747 O.2     1  UNL1       -0.2683
     16 N         138.5217  142.1523  157.4895 N.am    1  UNL1       -0.2765
     17 C         139.4473  143.3003  157.2149 C.3     1  UNL1        0.0937
     18 C         138.8472  144.1271  156.1167 C.3     1  UNL1        0.0232
     19 C         137.5507  143.4902  155.7124 C.3     1  UNL1        0.0216
     20 C         137.3495  142.2697  156.5609 C.3     1  UNL1        0.0758
     21 C         136.1813  141.3313  156.4928 C.3     1  UNL1        0.0215
     22 C         143.3005  142.1318  164.6475 C.3     1  UNL1        0.0944
     23 C         142.5138  142.3366  165.9081 C.ar    1  UNL1       -0.0037
     24 C         141.0584  142.6919  165.8345 C.ar    1  UNL1       -0.0027
     25 C         140.2716  142.8967  167.0951 C.ar    1  UNL1        0.0044
     26 C         140.9404  142.7461  168.4293 C.ar    1  UNL1        0.0819
     27 C         142.3958  142.3908  168.5029 C.ar    1  UNL1        0.0613
     28 CL        143.0644  142.2402  169.8371 Cl      1  UNL1       -0.0823
     29 C         143.1825  142.1860  167.2423 C.ar    1  UNL1        0.0087
     30 C         140.1536  142.9508  169.6899 C.3     1  UNL1        0.4194
     31 F         139.3669  143.1556  170.9505 F       1  UNL1       -0.1658
     32 F         139.6552  141.5384  169.6082 F       1  UNL1       -0.1658
     33 F         140.6520  144.3632  169.7715 F       1  UNL1       -0.1658
     34 C         145.7285  141.7807  163.7922 C.3     1  UNL1        0.0021
     35 C         144.7296  142.5815  164.5738 C.3     1  UNL1        0.0241
@<TRIPOS>BOND
     1    34    35    1
     2    22    35    1
     3    22     1    1
     4     1     2   am
     5     2     3    2
     6     2     5    1
     7     5     6   ar
     8     6     7   ar
     9     7    14    1
    10    14    15    2
    11    14    16   am
    12    16    17    1
    13    17    18    1
    14    18    19    1
    15    19    20    1
    16    20    21    1
    17     7     8   ar
    18     8     9   ar
    19     9    10    1
    20    10    11    1
    21    11    12    1
    22    12    13    1
    23    22    23    1
    24    23    24   ar
    25    24    25   ar
    26    25    26   ar
    27    26    30    1
    28    30    31    1
    29    30    32    1
    30    30    33    1
    31    26    27   ar
    32    27    28    1
    33    27    29   ar
    34     9     5   ar
    35    29    23   ar
    36    20    16    1
    37    13     8    1
    38     1     4    1
@<TRIPOS>MOLECULE
*****
 35 38 0 0 0
SMALL
GASTEIGER

@<TRIPOS>ATOM
      1 N         138.8594  139.8762  164.8917 N.am    1  UNL1       -0.2987
      2 C         139.7518  139.0346  164.0283 C.2     1  UNL1        0.2472
      3 O         140.6084  137.9706  164.6480 O.2     1  UNL1       -0.2701
      4 H         138.2971  140.5746  164.4849 H       1  UNL1        0.1500
      5 C         139.7876  139.2570  162.5453 C.ar    1  UNL1        0.0690
      6 C         138.8014  140.0602  161.7502 C.ar    1  UNL1        0.0275
      7 C         139.2202  140.0149  160.3106 C.ar    1  UNL1        0.1142
      8 N         140.4652  139.1837  160.2159 N.ar    1  UNL1       -0.3223
      9 C         140.8159  138.7153  161.5971 C.ar    1  UNL1        0.0717
     10 C         142.0263  137.8560  161.8129 C.3     1  UNL1        0.1857
     11 O         142.8859  137.4651  160.6475 O.3     1  UNL1       -0.3454
     12 C         142.5352  137.9335  159.2664 C.3     1  UNL1        0.1671
     13 C         141.3249  138.7928  159.0506 C.3     1  UNL1        0.1379
     14 C         138.5173  140.6834  159.1664 C.2     1  UNL1        0.2649
     15 O         137.2440  140.1032  158.6263 O.2     1  UNL1       -0.2683
     16 N         139.0879  141.9323  158.5624 N.am    1  UNL1       -0.2765
     17 C         140.3463  142.6252  158.9941 C.3     1  UNL1        0.0937
     18 C         140.5364  143.8286  158.1191 C.3     1  UNL1        0.0232
     19 C         139.3955  143.8796  157.1467 C.3     1  UNL1        0.0216
     20 C         138.5002  142.7076  157.4206 C.3     1  UNL1        0.0758
     21 C         137.2388  142.3701  156.6825 C.3     1  UNL1        0.0215
     22 C         138.8236  139.6538  166.3747 C.3     1  UNL1        0.0944
     23 C         139.7899  140.3773  167.2651 C.ar    1  UNL1       -0.0037
     24 C         139.5779  140.3878  168.7500 C.ar    1  UNL1       -0.0027
     25 C         140.5442  141.1113  169.6404 C.ar    1  UNL1        0.0044
     26 C         141.7224  141.8243  169.0459 C.ar    1  UNL1        0.0819
     27 C         141.9343  141.8138  167.5610 C.ar    1  UNL1        0.0613
     28 CL        143.1125  142.5268  166.9666 Cl      1  UNL1       -0.0823
     29 C         140.9681  141.0903  166.6706 C.ar    1  UNL1        0.0087
     30 C         142.6886  142.5478  169.9364 C.3     1  UNL1        0.4194
     31 F         143.6549  143.2713  170.8268 F       1  UNL1       -0.1658
     32 F         143.6163  141.3701  169.8866 F       1  UNL1       -0.1658
     33 F         141.7610  143.7255  169.9861 F       1  UNL1       -0.1658
     34 C         137.7990  137.2717  166.5346 C.3     1  UNL1        0.0021
     35 C         137.8216  138.7079  166.9671 C.3     1  UNL1        0.0241
@<TRIPOS>BOND
     1    34    35    1
     2    22    35    1
     3    22     1    1
     4     1     2   am
     5     2     3    2
     6     2     5    1
     7     5     6   ar
     8     6     7   ar
     9     7    14    1
    10    14    15    2
    11    14    16   am
    12    16    17    1
    13    17    18    1
    14    18    19    1
    15    19    20    1
    16    20    21    1
    17     7     8   ar
    18     8     9   ar
    19     9    10    1
    20    10    11    1
    21    11    12    1
    22    12    13    1
    23    22    23    1
    24    23    24   ar
    25    24    25   ar
    26    25    26   ar
    27    26    30    1
    28    30    31    1
    29    30    32    1
    30    30    33    1
    31    26    27   ar
    32    27    28    1
    33    27    29   ar
    34     9     5   ar
    35    29    23   ar
    36    20    16    1
    37    13     8    1
    38     1     4    1
@<TRIPOS>MOLECULE
*****
 35 38 0 0 0
SMALL
GASTEIGER

@<TRIPOS>ATOM
      1 N         139.4688  139.9345  164.5047 N.am    1  UNL1       -0.2987
      2 C         140.5776  139.1755  163.8379 C.2     1  UNL1        0.2472
      3 O         141.4411  138.2490  164.6415 O.2     1  UNL1       -0.2701
      4 H         138.9020  140.5427  163.9773 H       1  UNL1        0.1500
      5 C         140.8229  139.3432  162.3676 C.ar    1  UNL1        0.0690
      6 C         140.0461  138.6886  161.2639 C.ar    1  UNL1        0.0275
      7 C         140.6311  139.1358  159.9571 C.ar    1  UNL1        0.1142
      8 N         141.7695  140.0666  160.2531 N.ar    1  UNL1       -0.3223
      9 C         141.8880  140.1948  161.7429 C.ar    1  UNL1        0.0717
     10 C         142.9505  141.0704  162.3382 C.3     1  UNL1        0.1857
     11 O         143.8945  141.8178  161.4437 O.3     1  UNL1       -0.3454
     12 C         143.7760  141.6896  159.9539 C.3     1  UNL1        0.1671
     13 C         142.7135  140.8140  159.3586 C.3     1  UNL1        0.1379
     14 C         140.1605  138.7243  158.5936 C.2     1  UNL1        0.2649
     15 O         138.8191  139.1744  158.0957 O.2     1  UNL1       -0.2683
     16 N         141.0313  137.8626  157.7279 N.am    1  UNL1       -0.2765
     17 C         142.3896  137.3382  158.0885 C.3     1  UNL1        0.0937
     18 C         142.8944  136.5256  156.9332 C.3     1  UNL1        0.0232
     19 C         141.8483  136.5479  155.8585 C.3     1  UNL1        0.0216
     20 C         140.6968  137.3743  156.3496 C.3     1  UNL1        0.0758
     21 C         139.4327  137.6617  155.5951 C.3     1  UNL1        0.0215
     22 C         139.2235  139.7668  165.9749 C.3     1  UNL1        0.0944
     23 C         140.0413  140.5422  166.9649 C.ar    1  UNL1       -0.0037
     24 C         140.9065  141.6754  166.4990 C.ar    1  UNL1       -0.0027
     25 C         141.7243  142.4508  167.4890 C.ar    1  UNL1        0.0044
     26 C         141.6768  142.0929  168.9449 C.ar    1  UNL1        0.0819
     27 C         140.8115  140.9596  169.4108 C.ar    1  UNL1        0.0613
     28 CL        140.7641  140.6018  170.8667 Cl      1  UNL1       -0.0823
     29 C         139.9938  140.1843  168.4208 C.ar    1  UNL1        0.0087
     30 C         142.4946  142.8682  169.9349 C.3     1  UNL1        0.4194
     31 F         143.3123  143.6435  170.9249 F       1  UNL1       -0.1658
     32 F         141.4023  143.8912  170.0360 F       1  UNL1       -0.1658
     33 F         143.5869  141.8452  169.8338 F       1  UNL1       -0.1658
     34 C         138.2049  137.3783  166.0573 C.3     1  UNL1        0.0021
     35 C         138.1605  138.8238  166.4552 C.3     1  UNL1        0.0241
@<TRIPOS>BOND
     1    34    35    1
     2    22    35    1
     3    22     1    1
     4     1     2   am
     5     2     3    2
     6     2     5    1
     7     5     6   ar
     8     6     7   ar
     9     7    14    1
    10    14    15    2
    11    14    16   am
    12    16    17    1
    13    17    18    1
    14    18    19    1
    15    19    20    1
    16    20    21    1
    17     7     8   ar
    18     8     9   ar
    19     9    10    1
    20    10    11    1
    21    11    12    1
    22    12    13    1
    23    22    23    1
    24    23    24   ar
    25    24    25   ar
    26    25    26   ar
    27    26    30    1
    28    30    31    1
    29    30    32    1
    30    30    33    1
    31    26    27   ar
    32    27    28    1
    33    27    29   ar
    34     9     5   ar
    35    29    23   ar
    36    20    16    1
    37    13     8    1
    38     1     4    1
@<TRIPOS>MOLECULE
*****
 35 38 0 0 0
SMALL
GASTEIGER

@<TRIPOS>ATOM
      1 N         135.8375  141.9774  156.1317 N.am    1  UNL1       -0.2987
      2 C         137.0687  141.2441  156.5754 C.2     1  UNL1        0.2472
      3 O         137.3445  139.8623  156.0615 O.2     1  UNL1       -0.2701
      4 H         135.6564  142.8844  156.4689 H       1  UNL1        0.1500
      5 C         138.0238  141.8929  157.5329 C.ar    1  UNL1        0.0690
      6 C         138.4370  141.3508  158.8691 C.ar    1  UNL1        0.0275
      7 C         139.4019  142.3205  159.4844 C.ar    1  UNL1        0.1142
      8 N         139.5852  143.4618  158.5284 N.ar    1  UNL1       -0.3223
      9 C         138.7334  143.1975  157.3223 C.ar    1  UNL1        0.0717
     10 C         138.7140  144.1789  156.1882 C.3     1  UNL1        0.1857
     11 O         139.5464  145.4247  156.2601 O.3     1  UNL1       -0.3454
     12 C         140.3981  145.6890  157.4662 C.3     1  UNL1        0.1671
     13 C         140.4175  144.7076  158.6003 C.3     1  UNL1        0.1379
     14 C         140.0670  142.1745  160.8209 C.2     1  UNL1        0.2649
     15 O         141.4381  141.5737  160.9148 O.2     1  UNL1       -0.2683
     16 N         139.3608  142.6295  162.0637 N.am    1  UNL1       -0.2765
     17 C         137.9947  143.2457  162.1261 C.3     1  UNL1        0.0937
     18 C         137.6864  143.5451  163.5631 C.3     1  UNL1        0.0232
     19 C         138.8619  143.1140  164.3890 C.3     1  UNL1        0.0216
     20 C         139.8968  142.5480  163.4623 C.3     1  UNL1        0.0758
     21 C         141.2331  141.9974  163.8637 C.3     1  UNL1        0.0215
     22 C         134.8824  141.3287  155.1741 C.3     1  UNL1        0.0944
     23 C         133.7047  140.5595  155.6950 C.ar    1  UNL1       -0.0037
     24 C         133.9037  139.2002  156.2973 C.ar    1  UNL1       -0.0027
     25 C         132.7261  138.4309  156.8182 C.ar    1  UNL1        0.0044
     26 C         131.3494  139.0210  156.7369 C.ar    1  UNL1        0.0819
     27 C         131.1504  140.3803  156.1346 C.ar    1  UNL1        0.0613
     28 CL        129.7738  140.9703  156.0534 Cl      1  UNL1       -0.0823
     29 C         132.3281  141.1496  155.6137 C.ar    1  UNL1        0.0087
     30 C         130.1717  138.2518  157.2578 C.3     1  UNL1        0.4194
     31 F         128.9941  137.4826  157.7787 F       1  UNL1       -0.1658
     32 F         129.9025  137.7295  155.8777 F       1  UNL1       -0.1658
     33 F         130.4410  138.7741  158.6379 F       1  UNL1       -0.1658
     34 C         135.6533  140.2866  152.9226 C.3     1  UNL1        0.0021
     35 C         135.1050  141.4493  153.6957 C.3     1  UNL1        0.0241
@<TRIPOS>BOND
     1    34    35    1
     2    22    35    1
     3    22     1    1
     4     1     2   am
     5     2     3    2
     6     2     5    1
     7     5     6   ar
     8     6     7   ar
     9     7    14    1
    10    14    15    2
    11    14    16   am
    12    16    17    1
    13    17    18    1
    14    18    19    1
    15    19    20    1
    16    20    21    1
    17     7     8   ar
    18     8     9   ar
    19     9    10    1
    20    10    11    1
    21    11    12    1
    22    12    13    1
    23    22    23    1
    24    23    24   ar
    25    24    25   ar
    26    25    26   ar
    27    26    30    1
    28    30    31    1
    29    30    32    1
    30    30    33    1
    31    26    27   ar
    32    27    28    1
    33    27    29   ar
    34     9     5   ar
    35    29    23   ar
    36    20    16    1
    37    13     8    1
    38     1     4    1
@<TRIPOS>MOLECULE
*****
 35 38 0 0 0
SMALL
GASTEIGER

@<TRIPOS>ATOM
      1 N         139.9367  140.3809  163.3645 N.am    1  UNL1       -0.2987
      2 C         141.2151  140.8232  162.7162 C.2     1  UNL1        0.2472
      3 O         142.5068  140.1457  163.0660 O.2     1  UNL1       -0.2701
      4 H         139.0888  140.8256  163.1350 H       1  UNL1        0.1500
      5 C         141.2016  141.9429  161.7182 C.ar    1  UNL1        0.0690
      6 C         141.7417  141.8844  160.3201 C.ar    1  UNL1        0.0275
      7 C         141.5196  143.2231  159.6810 C.ar    1  UNL1        0.1142
      8 N         140.8421  144.1090  160.6841 N.ar    1  UNL1       -0.3223
      9 C         140.6456  143.3178  161.9432 C.ar    1  UNL1        0.0717
     10 C         139.9858  143.9515  163.1319 C.3     1  UNL1        0.1857
     11 O         139.5225  145.3764  163.0615 O.3     1  UNL1       -0.3454
     12 C         139.7190  146.1676  161.8023 C.3     1  UNL1        0.1671
     13 C         140.3788  145.5339  160.6136 C.3     1  UNL1        0.1379
     14 C         141.9068  143.6083  158.2839 C.2     1  UNL1        0.2649
     15 O         143.3501  143.8266  157.9389 O.2     1  UNL1       -0.2683
     16 N         140.8507  143.7753  157.2319 N.am    1  UNL1       -0.2765
     17 C         139.3748  143.5915  157.4272 C.3     1  UNL1        0.0937
     18 C         138.6970  143.8580  156.1159 C.3     1  UNL1        0.0232
     19 C         139.7539  144.2064  155.1101 C.3     1  UNL1        0.0216
     20 C         141.0849  144.1553  155.7999 C.3     1  UNL1        0.0758
     21 C         142.4165  144.4351  155.1684 C.3     1  UNL1        0.0215
     22 C         139.9501  139.2612  164.3625 C.3     1  UNL1        0.0944
     23 C         140.0661  139.5633  165.8272 C.ar    1  UNL1       -0.0037
     24 C         138.8679  139.4241  166.7189 C.ar    1  UNL1       -0.0027
     25 C         138.9839  139.7263  168.1835 C.ar    1  UNL1        0.0044
     26 C         140.2980  140.1675  168.7565 C.ar    1  UNL1        0.0819
     27 C         141.4962  140.3066  167.8649 C.ar    1  UNL1        0.0613
     28 CL        142.8103  140.7479  168.4380 Cl      1  UNL1       -0.0823
     29 C         141.3802  140.0045  166.4002 C.ar    1  UNL1        0.0087
     30 C         140.4140  140.4696  170.2212 C.3     1  UNL1        0.4194
     31 F         140.5300  140.7717  171.6859 F       1  UNL1       -0.1658
     32 F         141.0374  139.1245  170.4493 F       1  UNL1       -0.1658
     33 F         139.7906  141.8147  169.9931 F       1  UNL1       -0.1658
     34 C         141.0774  136.9835  163.8227 C.3     1  UNL1        0.0021
     35 C         139.8477  137.8394  163.8958 C.3     1  UNL1        0.0241
@<TRIPOS>BOND
     1    34    35    1
     2    22    35    1
     3    22     1    1
     4     1     2   am
     5     2     3    2
     6     2     5    1
     7     5     6   ar
     8     6     7   ar
     9     7    14    1
    10    14    15    2
    11    14    16   am
    12    16    17    1
    13    17    18    1
    14    18    19    1
    15    19    20    1
    16    20    21    1
    17     7     8   ar
    18     8     9   ar
    19     9    10    1
    20    10    11    1
    21    11    12    1
    22    12    13    1
    23    22    23    1
    24    23    24   ar
    25    24    25   ar
    26    25    26   ar
    27    26    30    1
    28    30    31    1
    29    30    32    1
    30    30    33    1
    31    26    27   ar
    32    27    28    1
    33    27    29   ar
    34     9     5   ar
    35    29    23   ar
    36    20    16    1
    37    13     8    1
    38     1     4    1
@<TRIPOS>MOLECULE
*****
 35 38 0 0 0
SMALL
GASTEIGER

@<TRIPOS>ATOM
      1 N         140.3987  140.4731  163.7623 N.am    1  UNL1       -0.2987
      2 C         141.0766  139.8063  162.6021 C.2     1  UNL1        0.2472
      3 O         141.2544  138.3170  162.5924 O.2     1  UNL1       -0.2701
      4 H         140.2820  141.4507  163.7687 H       1  UNL1        0.1500
      5 C         141.5767  140.6289  161.4518 C.ar    1  UNL1        0.0690
      6 C         142.8828  140.4440  160.7376 C.ar    1  UNL1        0.0275
      7 C         142.9717  141.4817  159.6581 C.ar    1  UNL1        0.1142
      8 N         141.7207  142.3080  159.7052 N.ar    1  UNL1       -0.3223
      9 C         140.8586  141.7810  160.8137 C.ar    1  UNL1        0.0717
     10 C         139.5309  142.4181  161.0990 C.3     1  UNL1        0.1857
     11 O         139.0655  143.5823  160.2756 O.3     1  UNL1       -0.3454
     12 C         139.9277  144.1094  159.1671 C.3     1  UNL1        0.1671
     13 C         141.2553  143.4722  158.8819 C.3     1  UNL1        0.1379
     14 C         144.1116  141.6615  158.6998 C.2     1  UNL1        0.2649
     15 O         145.1216  142.7462  158.9307 O.2     1  UNL1       -0.2683
     16 N         144.2415  140.7567  157.5105 N.am    1  UNL1       -0.2765
     17 C         143.3136  139.6342  157.1512 C.3     1  UNL1        0.0937
     18 C         143.8207  138.9993  155.8903 C.3     1  UNL1        0.0232
     19 C         145.0619  139.7293  155.4704 C.3     1  UNL1        0.0216
     20 C         145.3220  140.8155  156.4717 C.3     1  UNL1        0.0758
     21 C         146.4623  141.7894  156.4398 C.3     1  UNL1        0.0215
     22 C         139.8986  139.6505  164.9126 C.3     1  UNL1        0.0944
     23 C         140.6570  139.6313  166.2066 C.ar    1  UNL1       -0.0037
     24 C         142.1004  139.2235  166.2240 C.ar    1  UNL1       -0.0027
     25 C         142.8588  139.2043  167.5180 C.ar    1  UNL1        0.0044
     26 C         142.1738  139.5929  168.7946 C.ar    1  UNL1        0.0819
     27 C         140.7304  140.0008  168.7772 C.ar    1  UNL1        0.0613
     28 CL        140.0456  140.3894  170.0538 Cl      1  UNL1       -0.0823
     29 C         139.9720  140.0200  167.4832 C.ar    1  UNL1        0.0087
     30 C         142.9322  139.5738  170.0886 C.3     1  UNL1        0.4194
     31 F         143.6906  139.5546  171.3826 F       1  UNL1       -0.1658
     32 F         142.6020  138.1207  170.2606 F       1  UNL1       -0.1658
     33 F         143.2625  141.0268  169.9165 F       1  UNL1       -0.1658
     34 C         138.6118  137.4129  165.2072 C.3     1  UNL1        0.0021
     35 C         138.6401  138.8471  164.7688 C.3     1  UNL1        0.0241
@<TRIPOS>BOND
     1    34    35    1
     2    22    35    1
     3    22     1    1
     4     1     2   am
     5     2     3    2
     6     2     5    1
     7     5     6   ar
     8     6     7   ar
     9     7    14    1
    10    14    15    2
    11    14    16   am
    12    16    17    1
    13    17    18    1
    14    18    19    1
    15    19    20    1
    16    20    21    1
    17     7     8   ar
    18     8     9   ar
    19     9    10    1
    20    10    11    1
    21    11    12    1
    22    12    13    1
    23    22    23    1
    24    23    24   ar
    25    24    25   ar
    26    25    26   ar
    27    26    30    1
    28    30    31    1
    29    30    32    1
    30    30    33    1
    31    26    27   ar
    32    27    28    1
    33    27    29   ar
    34     9     5   ar
    35    29    23   ar
    36    20    16    1
    37    13     8    1
    38     1     4    1
@<TRIPOS>MOLECULE
*****
 35 38 0 0 0
SMALL
GASTEIGER

@<TRIPOS>ATOM
      1 N         139.4851  142.7963  163.0464 N.am    1  UNL1       -0.2987
      2 C         140.4675  143.7391  162.4169 C.2     1  UNL1        0.2472
      3 O         141.1101  144.8140  163.2424 O.2     1  UNL1       -0.2701
      4 H         139.0633  142.0908  162.5046 H       1  UNL1        0.1500
      5 C         140.8073  143.6068  160.9618 C.ar    1  UNL1        0.0690
      6 C         139.8587  143.7914  159.8146 C.ar    1  UNL1        0.0275
      7 C         140.6205  143.5653  158.5424 C.ar    1  UNL1        0.1142
      8 N         142.0398  143.2410  158.9033 N.ar    1  UNL1       -0.3223
      9 C         142.1553  143.2667  160.3986 C.ar    1  UNL1        0.0717
     10 C         143.4730  142.9770  161.0542 C.3     1  UNL1        0.1857
     11 O         144.6752  142.6617  160.2144 O.3     1  UNL1       -0.3454
     12 C         144.5597  142.6361  158.7191 C.3     1  UNL1        0.1671
     13 C         143.2420  142.9257  158.0635 C.3     1  UNL1        0.1379
     14 C         140.0611  143.6489  157.1531 C.2     1  UNL1        0.2649
     15 O         139.8848  142.4014  156.3392 O.2     1  UNL1       -0.2683
     16 N         139.6780  144.9802  156.5776 N.am    1  UNL1       -0.2765
     17 C         139.7964  146.3063  157.2685 C.3     1  UNL1        0.0937
     18 C         139.3008  147.3647  156.3282 C.3     1  UNL1        0.0232
     19 C         138.8761  146.6927  155.0562 C.3     1  UNL1        0.0216
     20 C         139.1092  145.2189  155.2104 C.3     1  UNL1        0.0758
     21 C         138.8236  144.1684  154.1785 C.3     1  UNL1        0.0215
     22 C         139.1454  142.9286  164.5014 C.3     1  UNL1        0.0944
     23 C         139.8612  142.0896  165.5181 C.ar    1  UNL1       -0.0037
     24 C         139.3270  140.7366  165.8842 C.ar    1  UNL1       -0.0027
     25 C         140.0428  139.8975  166.9008 C.ar    1  UNL1        0.0044
     26 C         141.2929  140.4115  167.5513 C.ar    1  UNL1        0.0819
     27 C         141.8271  141.7644  167.1852 C.ar    1  UNL1        0.0613
     28 CL        143.0772  142.2783  167.8357 Cl      1  UNL1       -0.0823
     29 C         141.1113  142.6035  166.1686 C.ar    1  UNL1        0.0087
     30 C         142.0087  139.5724  168.5680 C.3     1  UNL1        0.4194
     31 F         142.7245  138.7334  169.5846 F       1  UNL1       -0.1658
     32 F         142.9761  139.1210  167.5142 F       1  UNL1       -0.1658
     33 F         141.0413  140.0239  169.6217 F       1  UNL1       -0.1658
     34 C         138.4619  145.0793  165.7888 C.3     1  UNL1        0.0021
     35 C         138.0898  143.9000  164.9397 C.3     1  UNL1        0.0241
@<TRIPOS>BOND
     1    34    35    1
     2    22    35    1
     3    22     1    1
     4     1     2   am
     5     2     3    2
     6     2     5    1
     7     5     6   ar
     8     6     7   ar
     9     7    14    1
    10    14    15    2
    11    14    16   am
    12    16    17    1
    13    17    18    1
    14    18    19    1
    15    19    20    1
    16    20    21    1
    17     7     8   ar
    18     8     9   ar
    19     9    10    1
    20    10    11    1
    21    11    12    1
    22    12    13    1
    23    22    23    1
    24    23    24   ar
    25    24    25   ar
    26    25    26   ar
    27    26    30    1
    28    30    31    1
    29    30    32    1
    30    30    33    1
    31    26    27   ar
    32    27    28    1
    33    27    29   ar
    34     9     5   ar
    35    29    23   ar
    36    20    16    1
    37    13     8    1
    38     1     4    1
@<TRIPOS>MOLECULE
*****
 35 38 0 0 0
SMALL
GASTEIGER

@<TRIPOS>ATOM
      1 N         138.6436  140.4213  164.5786 N.am    1  UNL1       -0.2987
      2 C         139.6341  139.9709  163.5460 C.2     1  UNL1        0.2472
      3 O         140.7486  139.0436  163.9301 O.2     1  UNL1       -0.2701
      4 H         137.9120  141.0300  164.3265 H       1  UNL1        0.1500
      5 C         139.5099  140.4480  162.1293 C.ar    1  UNL1        0.0690
      6 C         139.1188  139.6105  160.9480 C.ar    1  UNL1        0.0275
      7 C         139.1222  140.4913  159.7338 C.ar    1  UNL1        0.1142
      8 N         139.5153  141.8732  160.1648 N.ar    1  UNL1       -0.3223
      9 C         139.7549  141.8465  161.6453 C.ar    1  UNL1        0.0717
     10 C         140.1652  143.0990  162.3614 C.3     1  UNL1        0.1857
     11 O         140.3360  144.3782  161.5970 O.3     1  UNL1       -0.3454
     12 C         140.0964  144.4050  160.1165 C.3     1  UNL1        0.1671
     13 C         139.6860  143.1525  159.4004 C.3     1  UNL1        0.1379
     14 C         138.7907  140.0650  158.3344 C.2     1  UNL1        0.2649
     15 O         137.4313  140.3472  157.7666 O.2     1  UNL1       -0.2683
     16 N         139.8186  139.3566  157.5027 N.am    1  UNL1       -0.2765
     17 C         141.2126  139.0075  157.9328 C.3     1  UNL1        0.0937
     18 C         141.8885  138.3081  156.7909 C.3     1  UNL1        0.0232
     19 C         140.9123  138.2249  155.6551 C.3     1  UNL1        0.0216
     20 C         139.6330  138.8729  156.0951 C.3     1  UNL1        0.0758
     21 C         138.3869  139.0127  155.2719 C.3     1  UNL1        0.0215
     22 C         138.7678  139.9442  165.9953 C.3     1  UNL1        0.0944
     23 C         139.6600  140.6723  166.9564 C.ar    1  UNL1       -0.0037
     24 C         140.5470  141.7780  166.4659 C.ar    1  UNL1       -0.0027
     25 C         141.4391  142.5062  167.4270 C.ar    1  UNL1        0.0044
     26 C         141.4443  142.1287  168.8787 C.ar    1  UNL1        0.0819
     27 C         140.5573  141.0230  169.3692 C.ar    1  UNL1        0.0613
     28 CL        140.5625  140.6455  170.8209 Cl      1  UNL1       -0.0823
     29 C         139.6651  140.2948  168.4081 C.ar    1  UNL1        0.0087
     30 C         142.3365  142.8568  169.8398 C.3     1  UNL1        0.4194
     31 F         143.2287  143.5850  170.8009 F       1  UNL1       -0.1658
     32 F         141.2804  143.9058  170.0254 F       1  UNL1       -0.1658
     33 F         143.3925  141.8079  169.6542 F       1  UNL1       -0.1658
     34 C         138.3201  137.3874  165.8842 C.3     1  UNL1        0.0021
     35 C         137.9998  138.7389  166.4507 C.3     1  UNL1        0.0241
@<TRIPOS>BOND
     1    34    35    1
     2    22    35    1
     3    22     1    1
     4     1     2   am
     5     2     3    2
     6     2     5    1
     7     5     6   ar
     8     6     7   ar
     9     7    14    1
    10    14    15    2
    11    14    16   am
    12    16    17    1
    13    17    18    1
    14    18    19    1
    15    19    20    1
    16    20    21    1
    17     7     8   ar
    18     8     9   ar
    19     9    10    1
    20    10    11    1
    21    11    12    1
    22    12    13    1
    23    22    23    1
    24    23    24   ar
    25    24    25   ar
    26    25    26   ar
    27    26    30    1
    28    30    31    1
    29    30    32    1
    30    30    33    1
    31    26    27   ar
    32    27    28    1
    33    27    29   ar
    34     9     5   ar
    35    29    23   ar
    36    20    16    1
    37    13     8    1
    38     1     4    1
