@<TRIPOS>MOLECULE
*****
 44 49 0 0 0
SMALL
GASTEIGER

@<TRIPOS>ATOM
      1 C         140.9266  140.3423  166.7352 C.3     1  UNL1        0.1094
      2 C         141.9014  139.3151  166.2405 C.3     1  UNL1        0.0301
      3 C         143.1404  139.7461  165.5132 C.3     1  UNL1        0.0194
      4 C         143.4048  141.2042  165.2805 C.3     1  UNL1        0.0700
      5 C         142.4300  142.2314  165.7753 C.3     1  UNL1        0.0194
      6 C         141.1909  141.8004  166.5027 C.3     1  UNL1        0.0301
      7 C         142.7121  141.0163  165.6841 C.3     1  UNL1        0.1562
      8 O         141.5917  140.6267  166.3418 O.3     1  UNL1       -0.3557
      9 N         144.6438  141.6351  164.5532 N.3     1  UNL1       -0.2926
     10 H         145.4324  141.1992  165.0312 H       1  UNL1        0.1236
     11 C         144.8004  141.3305  163.0928 C.3     1  UNL1        0.1152
     12 C         143.9987  142.0902  162.0780 C.ar    1  UNL1        0.0765
     13 C         144.2521  141.8830  160.6141 C.ar    1  UNL1        0.0193
     14 C         143.4503  142.6427  159.5993 C.ar    1  UNL1        0.0411
     15 C         142.3951  143.6096  160.0483 C.ar    1  UNL1        0.1708
     16 C         142.1416  143.8168  161.5121 C.ar    1  UNL1        0.1682
     17 N         142.9434  143.0571  162.5270 N.ar    1  UNL1       -0.2304
     18 N         141.0864  144.7838  161.9610 N.am    1  UNL1       -0.2639
     19 C         140.2846  145.5435  160.9462 C.2     1  UNL1        0.2718
     20 O         139.2294  146.5104  161.3952 O.2     1  UNL1       -0.2707
     21 C         140.5380  145.3363  159.4823 C.3     1  UNL1        0.2898
     22 O         141.5933  144.3694  159.0333 O.3     1  UNL1       -0.4628
     23 H         140.9201  144.9197  162.9218 H       1  UNL1        0.1565
     24 C         139.6876  139.9114  167.4626 C.3     1  UNL1        0.1207
     25 N         139.6921  139.8141  168.9594 N.3     1  UNL1       -0.1399
     26 H         140.5588  139.3442  169.2213 H       1  UNL1        0.1680
     27 O         139.6056  141.0586  169.7922 O.3     1  UNL1       -0.3679
     28 C         140.7805  141.4916  170.6181 C.2     1  UNL1        0.3352
     29 C         142.1720  141.3445  170.0778 C.3     1  UNL1        0.1230
     30 O         140.5639  142.0717  171.9843 O.2     1  UNL1       -0.2484
     31 C         138.4439  139.5778  166.6931 C.3     1  UNL1        0.0517
     32 C         137.9485  142.9849  163.7955 C.ar    1  UNL1        0.2250
     33 C         138.0254  142.7311  162.3192 C.ar    1  UNL1        0.0593
     34 C         138.2675  141.3416  161.8087 C.ar    1  UNL1        0.0254
     35 C         138.4326  140.2059  162.7745 C.ar    1  UNL1        0.0990
     36 N         138.6747  138.8163  162.2640 N.ar    1  UNL1       -0.2400
     37 C         138.8399  137.6806  163.2298 C.ar    1  UNL1        0.1281
     38 C         138.7630  137.9344  164.7062 C.ar    1  UNL1        0.1567
     39 F         138.9281  136.7987  165.6721 F       1  UNL1       -0.2028
     40 C         138.5209  139.3240  165.2167 C.ar    1  UNL1        0.0276
     41 C         138.3557  140.4597  164.2508 C.ar    1  UNL1        0.1002
     42 N         138.1136  141.8492  164.7613 N.ar    1  UNL1       -0.2104
     43 C         138.5467  144.9204  165.4221 C.3     1  UNL1        0.2542
     44 O         137.7064  144.3744  164.3060 O.3     1  UNL1       -0.4561
@<TRIPOS>BOND
     1    43    44    1
     2    44    32    1
     3    32    33   ar
     4    33    34   ar
     5    34    35   ar
     6    35    36   ar
     7    36    37   ar
     8    37    38   ar
     9    38    39    1
    10    38    40   ar
    11    40    31    1
    12    31    24    1
    13    24    25    1
    14    25    27    1
    15    27    28    1
    16    28    29    1
    17    28    30    2
    18    24     1    1
    19     1     2    1
    20     2     3    1
    21     3     4    1
    22     4     9    1
    23     9    11    1
    24    11    12    1
    25    12    13   ar
    26    13    14   ar
    27    14    15   ar
    28    15    16   ar
    29    16    17   ar
    30    16    18    1
    31    18    19   am
    32    19    20    2
    33    19    21    1
    34    21    22    1
    35     4     5    1
    36     5     6    1
    37     4     7    1
    38     7     8    1
    39    40    41   ar
    40    41    42   ar
    41    42    32   ar
    42    41    35   ar
    43     6     1    1
    44     8     1    1
    45    17    12   ar
    46    22    15    1
    47    25    26    1
    48     9    10    1
    49    18    23    1
@<TRIPOS>MOLECULE
*****
 44 49 0 0 0
SMALL
GASTEIGER

@<TRIPOS>ATOM
      1 C         142.9686  141.3130  166.1983 C.3     1  UNL1        0.1094
      2 C         143.2751  142.0175  164.9101 C.3     1  UNL1        0.0301
      3 C         143.8309  141.2484  163.7484 C.3     1  UNL1        0.0194
      4 C         144.0802  139.7746  163.8750 C.3     1  UNL1        0.0700
      5 C         143.7737  139.0701  165.1633 C.3     1  UNL1        0.0194
      6 C         143.2179  139.8393  166.3250 C.3     1  UNL1        0.0301
      7 C         143.7746  140.1538  164.5390 C.3     1  UNL1        0.1562
      8 O         143.2720  140.8492  165.5894 O.3     1  UNL1       -0.3557
      9 N         144.6360  139.0055  162.7134 N.3     1  UNL1       -0.2926
     10 H         145.4626  138.5144  163.0539 H       1  UNL1        0.1236
     11 C         143.7860  137.9878  162.0121 C.3     1  UNL1        0.1152
     12 C         142.3055  138.1992  161.8956 C.ar    1  UNL1        0.0765
     13 C         141.3762  137.5562  162.8820 C.ar    1  UNL1        0.0193
     14 C         139.8958  137.7675  162.7655 C.ar    1  UNL1        0.0411
     15 C         139.3446  138.6219  161.6627 C.ar    1  UNL1        0.1708
     16 C         140.2738  139.2649  160.6763 C.ar    1  UNL1        0.1682
     17 N         141.7544  139.0535  160.7927 N.ar    1  UNL1       -0.2304
     18 N         139.7227  140.1192  159.5734 N.am    1  UNL1       -0.2639
     19 C         138.2422  140.3306  159.4570 C.2     1  UNL1        0.2718
     20 O         137.6911  141.1849  158.3541 O.2     1  UNL1       -0.2707
     21 C         137.3129  139.6876  160.4434 C.3     1  UNL1        0.2898
     22 O         137.8641  138.8332  161.5462 O.3     1  UNL1       -0.4628
     23 H         140.3326  140.5413  158.9260 H       1  UNL1        0.1565
     24 C         142.4128  142.0822  167.3600 C.3     1  UNL1        0.1207
     25 N         143.3185  142.5171  168.4738 N.3     1  UNL1       -0.1399
     26 H         143.8162  143.3436  168.1430 H       1  UNL1        0.1680
     27 O         142.7440  142.8654  169.8149 O.3     1  UNL1       -0.3679
     28 C         142.2585  141.7789  170.7281 C.2     1  UNL1        0.3352
     29 C         142.7417  140.3712  170.5419 C.3     1  UNL1        0.1230
     30 O         141.2899  142.1002  171.8273 O.2     1  UNL1       -0.2484
     31 C         140.9513  142.4165  167.4078 C.3     1  UNL1        0.0517
     32 C         139.2192  144.1282  163.6237 C.ar    1  UNL1        0.2250
     33 C         138.2398  143.3273  162.8178 C.ar    1  UNL1        0.0593
     34 C         137.8378  141.9558  163.2734 C.ar    1  UNL1        0.0254
     35 C         138.4152  141.3853  164.5347 C.ar    1  UNL1        0.0990
     36 N         138.0132  140.0138  164.9903 N.ar    1  UNL1       -0.2400
     37 C         138.5905  139.4432  166.2516 C.ar    1  UNL1        0.1281
     38 C         139.5699  140.2442  167.0575 C.ar    1  UNL1        0.1567
     39 F         140.1473  139.6736  168.3189 F       1  UNL1       -0.2028
     40 C         139.9719  141.6156  166.6020 C.ar    1  UNL1        0.0276
     41 C         139.3945  142.1862  165.3406 C.ar    1  UNL1        0.1002
     42 N         139.7965  143.5576  164.8850 N.ar    1  UNL1       -0.2104
     43 C         139.7552  145.7942  161.7035 C.3     1  UNL1        0.2542
     44 O         139.6212  145.4996  163.1681 O.3     1  UNL1       -0.4561
@<TRIPOS>BOND
     1    43    44    1
     2    44    32    1
     3    32    33   ar
     4    33    34   ar
     5    34    35   ar
     6    35    36   ar
     7    36    37   ar
     8    37    38   ar
     9    38    39    1
    10    38    40   ar
    11    40    31    1
    12    31    24    1
    13    24    25    1
    14    25    27    1
    15    27    28    1
    16    28    29    1
    17    28    30    2
    18    24     1    1
    19     1     2    1
    20     2     3    1
    21     3     4    1
    22     4     9    1
    23     9    11    1
    24    11    12    1
    25    12    13   ar
    26    13    14   ar
    27    14    15   ar
    28    15    16   ar
    29    16    17   ar
    30    16    18    1
    31    18    19   am
    32    19    20    2
    33    19    21    1
    34    21    22    1
    35     4     5    1
    36     5     6    1
    37     4     7    1
    38     7     8    1
    39    40    41   ar
    40    41    42   ar
    41    42    32   ar
    42    41    35   ar
    43     6     1    1
    44     8     1    1
    45    17    12   ar
    46    22    15    1
    47    25    26    1
    48     9    10    1
    49    18    23    1
@<TRIPOS>MOLECULE
*****
 44 49 0 0 0
SMALL
GASTEIGER

@<TRIPOS>ATOM
      1 C         141.0801  140.1589  166.6765 C.3     1  UNL1        0.1094
      2 C         142.0396  139.0577  166.3347 C.3     1  UNL1        0.0301
      3 C         143.2946  139.3660  165.5732 C.3     1  UNL1        0.0194
      4 C         143.5901  140.7755  165.1534 C.3     1  UNL1        0.0700
      5 C         142.6306  141.8766  165.4953 C.3     1  UNL1        0.0194
      6 C         141.3756  141.5683  166.2568 C.3     1  UNL1        0.0301
      7 C         142.8896  140.6553  165.5692 C.3     1  UNL1        0.1562
      8 O         141.7548  140.3766  166.2578 O.3     1  UNL1       -0.3557
      9 N         144.8451  141.0837  164.3919 N.3     1  UNL1       -0.2926
     10 H         145.6000  140.5723  164.8491 H       1  UNL1        0.1236
     11 C         144.9314  140.7665  162.9284 C.3     1  UNL1        0.1152
     12 C         143.8649  141.2514  161.9917 C.ar    1  UNL1        0.0765
     13 C         143.7902  142.7048  161.6281 C.ar    1  UNL1        0.0193
     14 C         142.7237  143.1896  160.6914 C.ar    1  UNL1        0.0411
     15 C         141.7318  142.2212  160.1183 C.ar    1  UNL1        0.1708
     16 C         141.8065  140.7679  160.4819 C.ar    1  UNL1        0.1682
     17 N         142.8730  140.2829  161.4187 N.ar    1  UNL1       -0.2304
     18 N         140.8147  139.7995  159.9089 N.am    1  UNL1       -0.2639
     19 C         139.7482  140.2844  158.9722 C.2     1  UNL1        0.2718
     20 O         138.7563  139.3159  158.3991 O.2     1  UNL1       -0.2707
     21 C         139.6735  141.7377  158.6085 C.3     1  UNL1        0.2898
     22 O         140.6653  142.7062  159.1816 O.3     1  UNL1       -0.4628
     23 H         140.8637  138.8456  160.1476 H       1  UNL1        0.1565
     24 C         139.8251  139.8506  167.4380 C.3     1  UNL1        0.1207
     25 N         139.8186  139.9283  168.9360 N.3     1  UNL1       -0.1399
     26 H         139.8320  138.9684  169.2807 H       1  UNL1        0.1680
     27 O         140.9127  140.6615  169.6538 O.3     1  UNL1       -0.3679
     28 C         140.6237  141.9729  170.3222 C.2     1  UNL1        0.3352
     29 C         140.3999  143.2034  169.4942 C.3     1  UNL1        0.1230
     30 O         140.5585  142.0537  171.8186 O.2     1  UNL1       -0.2484
     31 C         138.5766  139.4647  166.7016 C.3     1  UNL1        0.0517
     32 C         137.8459  143.0382  164.0660 C.ar    1  UNL1        0.2250
     33 C         137.8716  142.8873  162.5739 C.ar    1  UNL1        0.0593
     34 C         138.1409  141.5453  161.9602 C.ar    1  UNL1        0.0254
     35 C         138.3844  140.3542  162.8387 C.ar    1  UNL1        0.0990
     36 N         138.6537  139.0122  162.2251 N.ar    1  UNL1       -0.2400
     37 C         138.8972  137.8211  163.1036 C.ar    1  UNL1        0.1281
     38 C         138.8715  137.9719  164.5958 C.ar    1  UNL1        0.1567
     39 F         139.1151  136.7807  165.4743 F       1  UNL1       -0.2028
     40 C         138.6023  139.3139  165.2094 C.ar    1  UNL1        0.0276
     41 C         138.3587  140.5050  164.3308 C.ar    1  UNL1        0.1002
     42 N         138.0895  141.8470  164.9445 N.ar    1  UNL1       -0.2104
     43 C         138.6011  145.0161  165.5717 C.3     1  UNL1        0.2542
     44 O         137.5766  144.3802  164.6796 O.3     1  UNL1       -0.4561
@<TRIPOS>BOND
     1    43    44    1
     2    44    32    1
     3    32    33   ar
     4    33    34   ar
     5    34    35   ar
     6    35    36   ar
     7    36    37   ar
     8    37    38   ar
     9    38    39    1
    10    38    40   ar
    11    40    31    1
    12    31    24    1
    13    24    25    1
    14    25    27    1
    15    27    28    1
    16    28    29    1
    17    28    30    2
    18    24     1    1
    19     1     2    1
    20     2     3    1
    21     3     4    1
    22     4     9    1
    23     9    11    1
    24    11    12    1
    25    12    13   ar
    26    13    14   ar
    27    14    15   ar
    28    15    16   ar
    29    16    17   ar
    30    16    18    1
    31    18    19   am
    32    19    20    2
    33    19    21    1
    34    21    22    1
    35     4     5    1
    36     5     6    1
    37     4     7    1
    38     7     8    1
    39    40    41   ar
    40    41    42   ar
    41    42    32   ar
    42    41    35   ar
    43     6     1    1
    44     8     1    1
    45    17    12   ar
    46    22    15    1
    47    25    26    1
    48     9    10    1
    49    18    23    1
@<TRIPOS>MOLECULE
*****
 44 49 0 0 0
SMALL
GASTEIGER

@<TRIPOS>ATOM
      1 C         141.8037  144.3449  163.2303 C.3     1  UNL1        0.1094
      2 C         142.7372  144.4444  164.4002 C.3     1  UNL1        0.0301
      3 C         143.9980  143.6322  164.4250 C.3     1  UNL1        0.0194
      4 C         144.3254  142.7204  163.2797 C.3     1  UNL1        0.0700
      5 C         143.3919  142.6209  162.1098 C.3     1  UNL1        0.0194
      6 C         142.1311  143.4332  162.0851 C.3     1  UNL1        0.0301
      7 C         143.6228  143.1458  163.2212 C.3     1  UNL1        0.1562
      8 O         142.4828  143.8802  163.1989 O.3     1  UNL1       -0.3557
      9 N         145.5862  141.9082  163.3045 N.3     1  UNL1       -0.2926
     10 H         146.2799  142.4568  163.8126 H       1  UNL1        0.1236
     11 C         145.5843  140.5388  163.9165 C.3     1  UNL1        0.1152
     12 C         144.2931  139.7940  164.0841 C.ar    1  UNL1        0.0765
     13 C         143.9368  139.2005  165.4149 C.ar    1  UNL1        0.0193
     14 C         142.6456  138.4557  165.5824 C.ar    1  UNL1        0.0411
     15 C         141.7107  138.3043  164.4192 C.ar    1  UNL1        0.1708
     16 C         142.0670  138.8977  163.0885 C.ar    1  UNL1        0.1682
     17 N         143.3582  139.6426  162.9209 N.ar    1  UNL1       -0.2304
     18 N         141.1321  138.7463  161.9253 N.am    1  UNL1       -0.2639
     19 C         139.8409  138.0015  162.0928 C.2     1  UNL1        0.2718
     20 O         138.9060  137.8501  160.9296 O.2     1  UNL1       -0.2707
     21 C         139.4846  137.4080  163.4236 C.3     1  UNL1        0.2898
     22 O         140.4195  137.5595  164.5868 O.3     1  UNL1       -0.4628
     23 H         141.3659  139.1358  161.0518 H       1  UNL1        0.1565
     24 C         140.5429  145.1571  163.2056 C.3     1  UNL1        0.1207
     25 N         140.4191  146.3214  162.2679 N.3     1  UNL1       -0.1399
     26 H         141.3671  146.5870  162.0014 H       1  UNL1        0.1680
     27 O         139.6354  146.1805  160.9968 O.3     1  UNL1       -0.3679
     28 C         140.0993  145.2327  159.9308 C.2     1  UNL1        0.3352
     29 C         141.2872  145.5801  159.0835 C.3     1  UNL1        0.1230
     30 O         139.3752  143.9374  159.7120 O.2     1  UNL1       -0.2484
     31 C         139.4059  144.8051  164.1185 C.3     1  UNL1        0.0517
     32 C         140.7298  142.1616  167.5110 C.ar    1  UNL1        0.2250
     33 C         140.2437  140.7449  167.5916 C.ar    1  UNL1        0.0593
     34 C         139.3163  140.2093  166.5414 C.ar    1  UNL1        0.0254
     35 C         138.8750  141.0904  165.4105 C.ar    1  UNL1        0.0990
     36 N         137.9476  140.5548  164.3603 N.ar    1  UNL1       -0.2400
     37 C         137.5063  141.4359  163.2295 C.ar    1  UNL1        0.1281
     38 C         137.9924  142.8527  163.1488 C.ar    1  UNL1        0.1567
     39 F         137.5511  143.7339  162.0180 F       1  UNL1       -0.2028
     40 C         138.9198  143.3883  164.1991 C.ar    1  UNL1        0.0276
     41 C         139.3611  142.5071  165.3300 C.ar    1  UNL1        0.1002
     42 N         140.2885  143.0427  166.3802 N.ar    1  UNL1       -0.2104
     43 C         143.1012  142.2912  168.5644 C.3     1  UNL1        0.2542
     44 O         141.6573  142.6972  168.5613 O.3     1  UNL1       -0.4561
@<TRIPOS>BOND
     1    43    44    1
     2    44    32    1
     3    32    33   ar
     4    33    34   ar
     5    34    35   ar
     6    35    36   ar
     7    36    37   ar
     8    37    38   ar
     9    38    39    1
    10    38    40   ar
    11    40    31    1
    12    31    24    1
    13    24    25    1
    14    25    27    1
    15    27    28    1
    16    28    29    1
    17    28    30    2
    18    24     1    1
    19     1     2    1
    20     2     3    1
    21     3     4    1
    22     4     9    1
    23     9    11    1
    24    11    12    1
    25    12    13   ar
    26    13    14   ar
    27    14    15   ar
    28    15    16   ar
    29    16    17   ar
    30    16    18    1
    31    18    19   am
    32    19    20    2
    33    19    21    1
    34    21    22    1
    35     4     5    1
    36     5     6    1
    37     4     7    1
    38     7     8    1
    39    40    41   ar
    40    41    42   ar
    41    42    32   ar
    42    41    35   ar
    43     6     1    1
    44     8     1    1
    45    17    12   ar
    46    22    15    1
    47    25    26    1
    48     9    10    1
    49    18    23    1
@<TRIPOS>MOLECULE
*****
 44 49 0 0 0
SMALL
GASTEIGER

@<TRIPOS>ATOM
      1 C         140.8342  140.6859  166.7407 C.3     1  UNL1        0.1094
      2 C         141.8886  139.9260  165.9920 C.3     1  UNL1        0.0301
      3 C         142.9960  140.6640  165.3000 C.3     1  UNL1        0.0194
      4 C         143.0491  142.1620  165.3567 C.3     1  UNL1        0.0700
      5 C         141.9946  142.9220  166.1055 C.3     1  UNL1        0.0194
      6 C         140.8871  142.1839  166.7975 C.3     1  UNL1        0.0301
      7 C         142.4229  141.8015  165.7515 C.3     1  UNL1        0.1562
      8 O         141.4215  141.1342  166.3772 O.3     1  UNL1       -0.3557
      9 N         144.1565  142.9000  164.6647 N.3     1  UNL1       -0.2926
     10 H         144.4179  142.3433  163.8510 H       1  UNL1        0.1236
     11 C         143.9342  144.3011  164.1774 C.3     1  UNL1        0.1152
     12 C         142.9144  144.5714  163.1112 C.ar    1  UNL1        0.0765
     13 C         141.6130  145.2272  163.4670 C.ar    1  UNL1        0.0193
     14 C         140.5932  145.4975  162.4008 C.ar    1  UNL1        0.0411
     15 C         140.8747  145.1120  160.9787 C.ar    1  UNL1        0.1708
     16 C         142.1759  144.4562  160.6229 C.ar    1  UNL1        0.1682
     17 N         143.1958  144.1859  161.6892 N.ar    1  UNL1       -0.2304
     18 N         142.4574  144.0707  159.2009 N.am    1  UNL1       -0.2639
     19 C         141.4376  144.3410  158.1347 C.2     1  UNL1        0.2718
     20 O         141.7190  143.9555  156.7126 O.2     1  UNL1       -0.2707
     21 C         140.1362  144.9968  158.4905 C.3     1  UNL1        0.2898
     22 O         139.8548  145.3823  159.9125 O.3     1  UNL1       -0.4628
     23 H         143.3115  143.6403  158.9674 H       1  UNL1        0.1565
     24 C         139.7267  139.9479  167.4327 C.3     1  UNL1        0.1207
     25 N         139.8803  139.5384  168.8675 N.3     1  UNL1       -0.1399
     26 H         140.2272  138.5792  168.8644 H       1  UNL1        0.1680
     27 O         140.7788  140.3209  169.7787 O.3     1  UNL1       -0.3679
     28 C         142.2617  140.0979  169.7427 C.2     1  UNL1        0.3352
     29 C         143.1927  141.2662  169.6083 C.3     1  UNL1        0.1230
     30 O         142.8135  138.7066  169.8410 O.2     1  UNL1       -0.2484
     31 C         138.4656  139.6194  166.6898 C.3     1  UNL1        0.0517
     32 C         137.8895  143.0434  163.8273 C.ar    1  UNL1        0.2250
     33 C         137.9324  142.7995  162.3479 C.ar    1  UNL1        0.0593
     34 C         138.1673  141.4142  161.8227 C.ar    1  UNL1        0.0254
     35 C         138.3593  140.2729  162.7768 C.ar    1  UNL1        0.0990
     36 N         138.5942  138.8876  162.2516 N.ar    1  UNL1       -0.2400
     37 C         138.7862  137.7463  163.2058 C.ar    1  UNL1        0.1281
     38 C         138.7433  137.9902  164.6852 C.ar    1  UNL1        0.1567
     39 F         138.9353  136.8489  165.6394 F       1  UNL1       -0.2028
     40 C         138.5084  139.3755  165.2105 C.ar    1  UNL1        0.0276
     41 C         138.3164  140.5168  164.2562 C.ar    1  UNL1        0.1002
     42 N         138.0815  141.9021  164.7814 N.ar    1  UNL1       -0.2104
     43 C         138.4803  144.9490  165.4916 C.3     1  UNL1        0.2542
     44 O         137.6546  144.4287  164.3525 O.3     1  UNL1       -0.4561
@<TRIPOS>BOND
     1    43    44    1
     2    44    32    1
     3    32    33   ar
     4    33    34   ar
     5    34    35   ar
     6    35    36   ar
     7    36    37   ar
     8    37    38   ar
     9    38    39    1
    10    38    40   ar
    11    40    31    1
    12    31    24    1
    13    24    25    1
    14    25    27    1
    15    27    28    1
    16    28    29    1
    17    28    30    2
    18    24     1    1
    19     1     2    1
    20     2     3    1
    21     3     4    1
    22     4     9    1
    23     9    11    1
    24    11    12    1
    25    12    13   ar
    26    13    14   ar
    27    14    15   ar
    28    15    16   ar
    29    16    17   ar
    30    16    18    1
    31    18    19   am
    32    19    20    2
    33    19    21    1
    34    21    22    1
    35     4     5    1
    36     5     6    1
    37     4     7    1
    38     7     8    1
    39    40    41   ar
    40    41    42   ar
    41    42    32   ar
    42    41    35   ar
    43     6     1    1
    44     8     1    1
    45    17    12   ar
    46    22    15    1
    47    25    26    1
    48     9    10    1
    49    18    23    1
@<TRIPOS>MOLECULE
*****
 44 49 0 0 0
SMALL
GASTEIGER

@<TRIPOS>ATOM
      1 C         141.6289  142.5770  166.2648 C.3     1  UNL1        0.1094
      2 C         142.5763  142.9932  165.1789 C.3     1  UNL1        0.0301
      3 C         142.1169  143.9295  164.1008 C.3     1  UNL1        0.0194
      4 C         140.7099  144.4495  164.1086 C.3     1  UNL1        0.0700
      5 C         139.7624  144.0333  165.1944 C.3     1  UNL1        0.0194
      6 C         140.2220  143.0970  166.2725 C.3     1  UNL1        0.0301
      7 C         140.9159  143.9386  164.7205 C.3     1  UNL1        0.1562
      8 O         141.3314  143.0920  165.6953 O.3     1  UNL1       -0.3557
      9 N         140.2504  145.3857  163.0305 N.3     1  UNL1       -0.2926
     10 H         141.0893  145.7404  162.5713 H       1  UNL1        0.1236
     11 C         139.3392  144.8916  161.9462 C.3     1  UNL1        0.1152
     12 C         139.4993  143.5007  161.4080 C.ar    1  UNL1        0.0765
     13 C         138.3420  142.5469  161.4386 C.ar    1  UNL1        0.0193
     14 C         138.5021  141.1560  160.9004 C.ar    1  UNL1        0.0411
     15 C         139.8194  140.7189  160.3315 C.ar    1  UNL1        0.1708
     16 C         140.9767  141.6727  160.3009 C.ar    1  UNL1        0.1682
     17 N         140.8166  143.0636  160.8391 N.ar    1  UNL1       -0.2304
     18 N         142.2940  141.2356  159.7320 N.am    1  UNL1       -0.2639
     19 C         142.4540  139.8447  159.1938 C.2     1  UNL1        0.2718
     20 O         143.7714  139.4076  158.6249 O.2     1  UNL1       -0.2707
     21 C         141.2968  138.8908  159.2244 C.3     1  UNL1        0.2898
     22 O         139.9794  139.3279  159.7933 O.3     1  UNL1       -0.4628
     23 H         143.0535  141.8616  159.7119 H       1  UNL1        0.1565
     24 C         142.0884  141.6407  167.3428 C.3     1  UNL1        0.1207
     25 N         142.6541  142.1874  168.6200 N.3     1  UNL1       -0.1399
     26 H         142.5615  143.2021  168.5725 H       1  UNL1        0.1680
     27 O         142.0789  141.7613  169.9381 O.3     1  UNL1       -0.3679
     28 C         141.0177  142.5917  170.5969 C.2     1  UNL1        0.3352
     29 C         140.4568  143.7902  169.8905 C.3     1  UNL1        0.1230
     30 O         140.5173  142.2237  171.9622 O.2     1  UNL1       -0.2484
     31 C         141.9821  140.1578  167.1438 C.3     1  UNL1        0.0517
     32 C         141.8995  138.1222  163.1314 C.ar    1  UNL1        0.2250
     33 C         140.6227  137.5237  162.6202 C.ar    1  UNL1        0.0593
     34 C         139.3733  137.6037  163.4464 C.ar    1  UNL1        0.0254
     35 C         139.4008  138.2822  164.7839 C.ar    1  UNL1        0.0990
     36 N         138.1515  138.3622  165.6102 N.ar    1  UNL1       -0.2400
     37 C         138.1790  139.0407  166.9476 C.ar    1  UNL1        0.1281
     38 C         139.4559  139.6392  167.4589 C.ar    1  UNL1        0.1567
     39 F         139.4834  140.3177  168.7964 F       1  UNL1       -0.2028
     40 C         140.7052  139.5592  166.6326 C.ar    1  UNL1        0.0276
     41 C         140.6777  138.8807  165.2951 C.ar    1  UNL1        0.1002
     42 N         141.9270  138.8007  164.4688 N.ar    1  UNL1       -0.2104
     43 C         144.1553  139.1532  162.3578 C.3     1  UNL1        0.2542
     44 O         143.1489  138.0423  162.3051 O.3     1  UNL1       -0.4561
@<TRIPOS>BOND
     1    43    44    1
     2    44    32    1
     3    32    33   ar
     4    33    34   ar
     5    34    35   ar
     6    35    36   ar
     7    36    37   ar
     8    37    38   ar
     9    38    39    1
    10    38    40   ar
    11    40    31    1
    12    31    24    1
    13    24    25    1
    14    25    27    1
    15    27    28    1
    16    28    29    1
    17    28    30    2
    18    24     1    1
    19     1     2    1
    20     2     3    1
    21     3     4    1
    22     4     9    1
    23     9    11    1
    24    11    12    1
    25    12    13   ar
    26    13    14   ar
    27    14    15   ar
    28    15    16   ar
    29    16    17   ar
    30    16    18    1
    31    18    19   am
    32    19    20    2
    33    19    21    1
    34    21    22    1
    35     4     5    1
    36     5     6    1
    37     4     7    1
    38     7     8    1
    39    40    41   ar
    40    41    42   ar
    41    42    32   ar
    42    41    35   ar
    43     6     1    1
    44     8     1    1
    45    17    12   ar
    46    22    15    1
    47    25    26    1
    48     9    10    1
    49    18    23    1
@<TRIPOS>MOLECULE
*****
 44 49 0 0 0
SMALL
GASTEIGER

@<TRIPOS>ATOM
      1 C         139.9423  142.0123  166.3656 C.3     1  UNL1        0.1094
      2 C         139.5667  143.1180  165.4242 C.3     1  UNL1        0.0301
      3 C         138.5781  142.8638  164.3251 C.3     1  UNL1        0.0194
      4 C         137.9650  141.5039  164.1674 C.3     1  UNL1        0.0700
      5 C         138.3406  140.3982  165.1089 C.3     1  UNL1        0.0194
      6 C         139.3293  140.6524  166.2080 C.3     1  UNL1        0.0301
      7 C         138.5021  141.5953  164.7848 C.3     1  UNL1        0.1562
      8 O         139.3960  141.8251  165.7787 O.3     1  UNL1       -0.3557
      9 N         136.9764  141.2497  163.0683 N.3     1  UNL1       -0.2926
     10 H         136.5592  142.1504  162.8335 H       1  UNL1        0.1236
     11 C         137.4309  140.6335  161.7785 C.3     1  UNL1        0.1152
     12 C         138.7677  140.9973  161.2035 C.ar    1  UNL1        0.0765
     13 C         139.8796  139.9905  161.1951 C.ar    1  UNL1        0.0193
     14 C         141.2164  140.3543  160.6201 C.ar    1  UNL1        0.0411
     15 C         141.4414  141.7248  160.0536 C.ar    1  UNL1        0.1708
     16 C         140.3295  142.7316  160.0620 C.ar    1  UNL1        0.1682
     17 N         138.9926  142.3678  160.6370 N.ar    1  UNL1       -0.2304
     18 N         140.5544  144.1021  159.4954 N.am    1  UNL1       -0.2639
     19 C         141.8912  144.4659  158.9205 C.2     1  UNL1        0.2718
     20 O         142.1161  145.8365  158.3539 O.2     1  UNL1       -0.2707
     21 C         143.0032  143.4591  158.9120 C.3     1  UNL1        0.2898
     22 O         142.7782  142.0886  159.4786 O.3     1  UNL1       -0.4628
     23 H         139.8247  144.7629  159.5010 H       1  UNL1        0.1565
     24 C         140.9309  142.2665  167.4647 C.3     1  UNL1        0.1207
     25 N         140.4493  142.6454  168.8339 N.3     1  UNL1       -0.1399
     26 H         139.9017  143.4993  168.7275 H       1  UNL1        0.1680
     27 O         139.6086  141.6876  169.6249 O.3     1  UNL1       -0.3679
     28 C         140.2517  140.7785  170.6298 C.2     1  UNL1        0.3352
     29 C         141.6142  141.1002  171.1685 C.3     1  UNL1        0.1230
     30 O         139.5325  139.5475  171.0961 O.2     1  UNL1       -0.2484
     31 C         142.4011  142.1418  167.1947 C.3     1  UNL1        0.0517
     32 C         144.1793  142.6648  163.0942 C.ar    1  UNL1        0.2250
     33 C         144.7065  141.4752  162.3481 C.ar    1  UNL1        0.0593
     34 C         144.6411  140.1112  162.9688 C.ar    1  UNL1        0.0254
     35 C         144.0484  139.9368  164.3356 C.ar    1  UNL1        0.0990
     36 N         143.9829  138.5729  164.9563 N.ar    1  UNL1       -0.2400
     37 C         143.3902  138.3985  166.3231 C.ar    1  UNL1        0.1281
     38 C         142.8629  139.5882  167.0693 C.ar    1  UNL1        0.1567
     39 F         142.2702  139.4138  168.4361 F       1  UNL1       -0.2028
     40 C         142.9284  140.9521  166.4486 C.ar    1  UNL1        0.0276
     41 C         143.5211  141.1265  165.0817 C.ar    1  UNL1        0.1002
     42 N         143.5866  142.4904  164.4610 N.ar    1  UNL1       -0.2104
     43 C         143.7895  145.2287  163.2498 C.3     1  UNL1        0.2542
     44 O         144.2447  144.0288  162.4735 O.3     1  UNL1       -0.4561
@<TRIPOS>BOND
     1    43    44    1
     2    44    32    1
     3    32    33   ar
     4    33    34   ar
     5    34    35   ar
     6    35    36   ar
     7    36    37   ar
     8    37    38   ar
     9    38    39    1
    10    38    40   ar
    11    40    31    1
    12    31    24    1
    13    24    25    1
    14    25    27    1
    15    27    28    1
    16    28    29    1
    17    28    30    2
    18    24     1    1
    19     1     2    1
    20     2     3    1
    21     3     4    1
    22     4     9    1
    23     9    11    1
    24    11    12    1
    25    12    13   ar
    26    13    14   ar
    27    14    15   ar
    28    15    16   ar
    29    16    17   ar
    30    16    18    1
    31    18    19   am
    32    19    20    2
    33    19    21    1
    34    21    22    1
    35     4     5    1
    36     5     6    1
    37     4     7    1
    38     7     8    1
    39    40    41   ar
    40    41    42   ar
    41    42    32   ar
    42    41    35   ar
    43     6     1    1
    44     8     1    1
    45    17    12   ar
    46    22    15    1
    47    25    26    1
    48     9    10    1
    49    18    23    1
@<TRIPOS>MOLECULE
*****
 44 49 0 0 0
SMALL
GASTEIGER

@<TRIPOS>ATOM
      1 C         140.2331  143.5577  162.5882 C.3     1  UNL1        0.1094
      2 C         139.7919  142.3689  161.7869 C.3     1  UNL1        0.0301
      3 C         138.9533  141.3025  162.4267 C.3     1  UNL1        0.0194
      4 C         138.5559  141.4248  163.8680 C.3     1  UNL1        0.0700
      5 C         138.9971  142.6136  164.6693 C.3     1  UNL1        0.0194
      6 C         139.8357  143.6801  164.0294 C.3     1  UNL1        0.0301
      7 C         139.0162  142.0345  163.5610 C.3     1  UNL1        0.1562
      8 O         139.7745  142.9989  162.9824 O.3     1  UNL1       -0.3557
      9 N         137.7174  140.3583  164.5079 N.3     1  UNL1       -0.2926
     10 H         137.1623  139.9346  163.7644 H       1  UNL1        0.1236
     11 C         138.3740  139.2340  165.2526 C.3     1  UNL1        0.1152
     12 C         139.4753  139.5233  166.2290 C.ar    1  UNL1        0.0765
     13 C         140.8936  139.1772  165.8840 C.ar    1  UNL1        0.0193
     14 C         141.9949  139.4665  166.8604 C.ar    1  UNL1        0.0411
     15 C         141.6781  140.1018  168.1817 C.ar    1  UNL1        0.1708
     16 C         140.2599  140.4479  168.5267 C.ar    1  UNL1        0.1682
     17 N         139.1585  140.1586  167.5503 N.ar    1  UNL1       -0.2304
     18 N         139.9431  141.0832  169.8481 N.am    1  UNL1       -0.2639
     19 C         141.0444  141.3725  170.8244 C.2     1  UNL1        0.2718
     20 O         140.7276  142.0078  172.1458 O.2     1  UNL1       -0.2707
     21 C         142.4627  141.0265  170.4795 C.3     1  UNL1        0.2898
     22 O         142.7795  140.3911  169.1581 O.3     1  UNL1       -0.4628
     23 H         139.0123  141.3103  170.0745 H       1  UNL1        0.1565
     24 C         141.0716  144.6242  161.9484 C.3     1  UNL1        0.1207
     25 N         140.4258  145.8726  161.4246 N.3     1  UNL1       -0.1399
     26 H         141.1389  146.6018  161.4402 H       1  UNL1        0.1680
     27 O         139.8231  145.8858  160.0512 O.3     1  UNL1       -0.3679
     28 C         140.5542  145.2517  158.9051 C.2     1  UNL1        0.3352
     29 C         139.9357  144.1036  158.1641 C.3     1  UNL1        0.1230
     30 O         141.9039  145.7658  158.5001 O.2     1  UNL1       -0.2484
     31 C         142.5561  144.4422  161.8322 C.3     1  UNL1        0.0517
     32 C         143.3946  140.0964  161.0192 C.ar    1  UNL1        0.2250
     33 C         144.1308  139.2722  162.0334 C.ar    1  UNL1        0.0593
     34 C         144.5875  139.8965  163.3186 C.ar    1  UNL1        0.0254
     35 C         144.3080  141.3450  163.5896 C.ar    1  UNL1        0.0990
     36 N         144.7647  141.9694  164.8748 N.ar    1  UNL1       -0.2400
     37 C         144.4852  143.4179  165.1457 C.ar    1  UNL1        0.1281
     38 C         143.7489  144.2423  164.1315 C.ar    1  UNL1        0.1567
     39 F         143.4694  145.6908  164.4025 F       1  UNL1       -0.2028
     40 C         143.2923  143.6179  162.8464 C.ar    1  UNL1        0.0276
     41 C         143.5718  142.1693  162.5754 C.ar    1  UNL1        0.1002
     42 N         143.1151  141.5450  161.2902 N.ar    1  UNL1       -0.2104
     43 C         142.8351  137.9800  159.6201 C.3     1  UNL1        0.2542
     44 O         142.9380  139.4721  159.7341 O.3     1  UNL1       -0.4561
@<TRIPOS>BOND
     1    43    44    1
     2    44    32    1
     3    32    33   ar
     4    33    34   ar
     5    34    35   ar
     6    35    36   ar
     7    36    37   ar
     8    37    38   ar
     9    38    39    1
    10    38    40   ar
    11    40    31    1
    12    31    24    1
    13    24    25    1
    14    25    27    1
    15    27    28    1
    16    28    29    1
    17    28    30    2
    18    24     1    1
    19     1     2    1
    20     2     3    1
    21     3     4    1
    22     4     9    1
    23     9    11    1
    24    11    12    1
    25    12    13   ar
    26    13    14   ar
    27    14    15   ar
    28    15    16   ar
    29    16    17   ar
    30    16    18    1
    31    18    19   am
    32    19    20    2
    33    19    21    1
    34    21    22    1
    35     4     5    1
    36     5     6    1
    37     4     7    1
    38     7     8    1
    39    40    41   ar
    40    41    42   ar
    41    42    32   ar
    42    41    35   ar
    43     6     1    1
    44     8     1    1
    45    17    12   ar
    46    22    15    1
    47    25    26    1
    48     9    10    1
    49    18    23    1
@<TRIPOS>MOLECULE
*****
 44 49 0 0 0
SMALL
GASTEIGER

@<TRIPOS>ATOM
      1 C         142.4486  143.0198  165.4865 C.3     1  UNL1        0.1094
      2 C         140.9747  143.2836  165.3967 C.3     1  UNL1        0.0301
      3 C         140.4487  144.2685  164.3950 C.3     1  UNL1        0.0194
      4 C         141.3966  144.9896  163.4831 C.3     1  UNL1        0.0700
      5 C         142.8705  144.7258  163.5729 C.3     1  UNL1        0.0194
      6 C         143.3965  143.7409  164.5746 C.3     1  UNL1        0.0301
      7 C         141.7318  144.4589  164.0159 C.3     1  UNL1        0.1562
      8 O         142.2075  143.5683  164.9217 O.3     1  UNL1       -0.3557
      9 N         140.8707  145.9744  162.4814 N.3     1  UNL1       -0.2926
     10 H         141.6263  146.6324  162.2906 H       1  UNL1        0.1236
     11 C         140.3674  145.4958  161.1519 C.3     1  UNL1        0.1152
     12 C         140.9697  144.2780  160.5161 C.ar    1  UNL1        0.0765
     13 C         140.2731  142.9538  160.6228 C.ar    1  UNL1        0.0193
     14 C         140.8755  141.7361  159.9870 C.ar    1  UNL1        0.0411
     15 C         142.1745  141.8425  159.2445 C.ar    1  UNL1        0.1708
     16 C         142.8711  143.1666  159.1378 C.ar    1  UNL1        0.1682
     17 N         142.2687  144.3844  159.7736 N.ar    1  UNL1       -0.2304
     18 N         144.1701  143.2730  158.3953 N.am    1  UNL1       -0.2639
     19 C         144.7725  142.0553  157.7595 C.2     1  UNL1        0.2718
     20 O         146.0715  142.1617  157.0171 O.2     1  UNL1       -0.2707
     21 C         144.0759  140.7311  157.8662 C.3     1  UNL1        0.2898
     22 O         142.7769  140.6247  158.6087 O.3     1  UNL1       -0.4628
     23 H         144.6273  144.1421  158.3253 H       1  UNL1        0.1565
     24 C         142.9746  142.0350  166.4881 C.3     1  UNL1        0.1207
     25 N         143.4914  142.5151  167.8119 N.3     1  UNL1       -0.1399
     26 H         143.4867  143.5345  167.7777 H       1  UNL1        0.1680
     27 O         142.7906  142.1211  169.0782 O.3     1  UNL1       -0.3679
     28 C         142.1949  143.1744  169.9647 C.2     1  UNL1        0.3352
     29 C         140.7492  143.5469  169.8197 C.3     1  UNL1        0.1230
     30 O         143.0450  143.8552  170.9961 O.2     1  UNL1       -0.2484
     31 C         142.9838  140.5700  166.1660 C.3     1  UNL1        0.0517
     32 C         138.8861  139.3174  164.7912 C.ar    1  UNL1        0.2250
     33 C         138.6767  138.8588  163.3785 C.ar    1  UNL1        0.0593
     34 C         139.8331  138.8176  162.4241 C.ar    1  UNL1        0.0254
     35 C         141.1990  139.2351  162.8823 C.ar    1  UNL1        0.0990
     36 N         142.3554  139.1940  161.9279 N.ar    1  UNL1       -0.2400
     37 C         143.7213  139.6115  162.3862 C.ar    1  UNL1        0.1281
     38 C         143.9308  140.0702  163.7989 C.ar    1  UNL1        0.1567
     39 F         145.2966  140.4876  164.2572 F       1  UNL1       -0.2028
     40 C         142.7743  140.1113  164.7534 C.ar    1  UNL1        0.0276
     41 C         141.4084  139.6938  164.2950 C.ar    1  UNL1        0.1002
     42 N         140.2520  139.7349  165.2495 N.ar    1  UNL1       -0.2104
     43 C         137.6917  138.4245  166.9186 C.3     1  UNL1        0.2542
     44 O         137.7296  139.3586  165.7456 O.3     1  UNL1       -0.4561
@<TRIPOS>BOND
     1    43    44    1
     2    44    32    1
     3    32    33   ar
     4    33    34   ar
     5    34    35   ar
     6    35    36   ar
     7    36    37   ar
     8    37    38   ar
     9    38    39    1
    10    38    40   ar
    11    40    31    1
    12    31    24    1
    13    24    25    1
    14    25    27    1
    15    27    28    1
    16    28    29    1
    17    28    30    2
    18    24     1    1
    19     1     2    1
    20     2     3    1
    21     3     4    1
    22     4     9    1
    23     9    11    1
    24    11    12    1
    25    12    13   ar
    26    13    14   ar
    27    14    15   ar
    28    15    16   ar
    29    16    17   ar
    30    16    18    1
    31    18    19   am
    32    19    20    2
    33    19    21    1
    34    21    22    1
    35     4     5    1
    36     5     6    1
    37     4     7    1
    38     7     8    1
    39    40    41   ar
    40    41    42   ar
    41    42    32   ar
    42    41    35   ar
    43     6     1    1
    44     8     1    1
    45    17    12   ar
    46    22    15    1
    47    25    26    1
    48     9    10    1
    49    18    23    1
