@<TRIPOS>MOLECULE
*****
 31 34 0 0 0
SMALL
GASTEIGER

@<TRIPOS>ATOM
      1 N         141.2173  144.4968  161.6932 N.3     1  UNL1       -0.2689
      2 C         140.6240  144.8427  163.0267 C.3     1  UNL1        0.0724
      3 C         140.8801  143.9611  164.2129 C.3     1  UNL1        0.0175
      4 C         141.7295  142.7336  164.0656 C.3     1  UNL1        0.0060
      5 C         142.3228  142.3876  162.7321 C.3     1  UNL1        0.0175
      6 C         142.0667  143.2692  161.5459 C.3     1  UNL1        0.0724
      7 C         141.1362  143.0795  165.3992 C.3     1  UNL1        0.0217
      8 C         141.3923  142.1979  166.5855 C.3     1  UNL1        0.0937
      9 N         142.2417  140.9704  166.4382 N.am    1  UNL1       -0.2761
     10 C         142.4978  140.0887  167.6245 C.2     1  UNL1        0.2491
     11 O         143.3471  138.8612  167.4772 O.2     1  UNL1       -0.2699
     12 C         142.8350  140.6244  165.1046 C.3     1  UNL1        0.0937
     13 C         142.5789  141.5060  163.9183 C.3     1  UNL1        0.0217
     14 C         141.9045  140.4347  168.9580 C.ar    1  UNL1        0.0567
     15 C         140.5692  139.8767  169.3523 C.ar    1  UNL1        0.0252
     16 C         139.9759  140.2226  170.6858 C.ar    1  UNL1        0.0990
     17 N         140.7180  141.1266  171.6251 N.ar    1  UNL1       -0.2423
     18 C         142.0533  141.6846  171.2308 C.ar    1  UNL1        0.0990
     19 C         142.6466  141.3387  169.8972 C.ar    1  UNL1        0.0252
     20 C         140.9612  145.3784  160.5069 C.3     1  UNL1        0.1022
     21 C         139.7158  143.8145  158.8476 C.ar    1  UNL1        0.1363
     22 C         139.5840  143.2123  157.4802 C.ar    1  UNL1        0.0366
     23 C         140.5658  143.5717  156.4045 C.ar    1  UNL1        0.0031
     24 C         141.6793  144.5334  156.6963 C.ar    1  UNL1       -0.0001
     25 C         141.8112  145.1356  158.0638 C.ar    1  UNL1        0.0001
     26 C         140.8294  144.7762  159.1395 C.ar    1  UNL1        0.0279
     27 O         138.7341  143.4550  159.9232 O.3     1  UNL1       -0.4713
     28 C         138.6657  142.0472  160.4362 C.3     1  UNL1        0.2278
     29 C         137.6798  142.7446  162.7366 C.2     1  UNL1       -0.0055
     30 C         138.4839  141.7914  161.9030 C.2     1  UNL1       -0.0007
     31 C         139.1060  140.5824  162.5363 C.3     1  UNL1        0.0301
@<TRIPOS>BOND
     1    29    30    2
     2    30    31    1
     3    30    28    1
     4    28    27    1
     5    27    21    1
     6    21    22   ar
     7    22    23   ar
     8    23    24   ar
     9    24    25   ar
    10    25    26   ar
    11    26    20    1
    12    20     1    1
    13     1     2    1
    14     2     3    1
    15     3     4    1
    16     4     5    1
    17     5     6    1
    18     4     7    1
    19     7     8    1
    20     8     9    1
    21     9    10   am
    22    10    11    2
    23    10    14    1
    24    14    15   ar
    25    15    16   ar
    26    16    17   ar
    27    17    18   ar
    28    18    19   ar
    29     9    12    1
    30    12    13    1
    31    26    21   ar
    32     6     1    1
    33    19    14   ar
    34    13     4    1
@<TRIPOS>MOLECULE
*****
 31 34 0 0 0
SMALL
GASTEIGER

@<TRIPOS>ATOM
      1 N         140.2448  144.7845  161.8027 N.3     1  UNL1       -0.2689
      2 C         141.0094  145.0777  163.0594 C.3     1  UNL1        0.0724
      3 C         140.8656  144.1790  164.2517 C.3     1  UNL1        0.0175
      4 C         139.9572  142.9871  164.1873 C.3     1  UNL1        0.0060
      5 C         139.1925  142.6939  162.9306 C.3     1  UNL1        0.0175
      6 C         139.3363  143.5926  161.7383 C.3     1  UNL1        0.0724
      7 C         140.7218  143.2803  165.4441 C.3     1  UNL1        0.0217
      8 C         140.5780  142.3816  166.6364 C.3     1  UNL1        0.0937
      9 N         139.6696  141.1897  166.5720 N.am    1  UNL1       -0.2761
     10 C         139.5258  140.2910  167.7644 C.2     1  UNL1        0.2491
     11 O         138.6174  139.0991  167.7000 O.2     1  UNL1       -0.2699
     12 C         138.9050  140.8965  165.3153 C.3     1  UNL1        0.0937
     13 C         139.0487  141.7952  164.1229 C.3     1  UNL1        0.0217
     14 C         140.2905  140.5842  169.0211 C.ar    1  UNL1        0.0567
     15 C         139.7530  141.5732  170.0126 C.ar    1  UNL1        0.0252
     16 C         140.5176  141.8664  171.2692 C.ar    1  UNL1        0.0990
     17 N         141.8198  141.1706  171.5345 N.ar    1  UNL1       -0.2423
     18 C         142.3572  140.1816  170.5430 C.ar    1  UNL1        0.0990
     19 C         141.5925  139.8884  169.2863 C.ar    1  UNL1        0.0252
     20 C         140.3885  145.6832  160.6103 C.3     1  UNL1        0.1022
     21 C         142.0899  144.2748  159.2422 C.ar    1  UNL1        0.1363
     22 C         142.5542  143.7130  157.9312 C.ar    1  UNL1        0.0366
     23 C         141.7817  143.9977  156.6774 C.ar    1  UNL1        0.0031
     24 C         140.5448  144.8443  156.7345 C.ar    1  UNL1       -0.0001
     25 C         140.0803  145.4062  158.0455 C.ar    1  UNL1        0.0001
     26 C         140.8529  145.1214  159.2994 C.ar    1  UNL1        0.0279
     27 O         142.8624  143.9900  160.4960 O.3     1  UNL1       -0.4713
     28 C         143.0114  142.5784  160.9808 C.3     1  UNL1        0.2278
     29 C         144.3310  143.2699  163.1093 C.2     1  UNL1       -0.0055
     30 C         143.4215  142.3118  162.3988 C.2     1  UNL1       -0.0007
     31 C         142.9222  141.0871  163.1064 C.3     1  UNL1        0.0301
@<TRIPOS>BOND
     1    29    30    2
     2    30    31    1
     3    30    28    1
     4    28    27    1
     5    27    21    1
     6    21    22   ar
     7    22    23   ar
     8    23    24   ar
     9    24    25   ar
    10    25    26   ar
    11    26    20    1
    12    20     1    1
    13     1     2    1
    14     2     3    1
    15     3     4    1
    16     4     5    1
    17     5     6    1
    18     4     7    1
    19     7     8    1
    20     8     9    1
    21     9    10   am
    22    10    11    2
    23    10    14    1
    24    14    15   ar
    25    15    16   ar
    26    16    17   ar
    27    17    18   ar
    28    18    19   ar
    29     9    12    1
    30    12    13    1
    31    26    21   ar
    32     6     1    1
    33    19    14   ar
    34    13     4    1
@<TRIPOS>MOLECULE
*****
 31 34 0 0 0
SMALL
GASTEIGER

@<TRIPOS>ATOM
      1 N         140.4892  140.7675  161.1422 N.3     1  UNL1       -0.2689
      2 C         141.3525  141.4684  162.1488 C.3     1  UNL1        0.0724
      3 C         141.0731  141.3130  163.6143 C.3     1  UNL1        0.0175
      4 C         139.9302  140.4567  164.0732 C.3     1  UNL1        0.0060
      5 C         139.0668  139.7558  163.0666 C.3     1  UNL1        0.0175
      6 C         139.3463  139.9112  161.6011 C.3     1  UNL1        0.0724
      7 C         140.7936  141.1577  165.0799 C.3     1  UNL1        0.0217
      8 C         140.5141  141.0023  166.5453 C.3     1  UNL1        0.0937
      9 N         139.3712  140.1460  167.0042 N.am    1  UNL1       -0.2761
     10 C         139.0918  139.9906  168.4698 C.2     1  UNL1        0.2491
     11 O         137.9489  139.1343  168.9287 O.2     1  UNL1       -0.2699
     12 C         138.5079  139.4450  165.9977 C.3     1  UNL1        0.0937
     13 C         138.7873  139.6004  164.5321 C.3     1  UNL1        0.0217
     14 C         139.9551  140.6915  169.4764 C.ar    1  UNL1        0.0567
     15 C         139.5973  142.0728  169.9392 C.ar    1  UNL1        0.0252
     16 C         140.4606  142.7737  170.9457 C.ar    1  UNL1        0.0990
     17 N         141.6819  142.0934  171.4896 N.ar    1  UNL1       -0.2423
     18 C         142.0398  140.7122  171.0268 C.ar    1  UNL1        0.0990
     19 C         141.1763  140.0113  170.0202 C.ar    1  UNL1        0.0252
     20 C         140.7687  140.9228  159.6766 C.3     1  UNL1        0.1022
     21 C         142.3616  139.0268  158.8907 C.ar    1  UNL1        0.1363
     22 C         142.6215  137.8161  158.0443 C.ar    1  UNL1        0.0366
     23 C         141.5485  137.2905  157.1374 C.ar    1  UNL1        0.0031
     24 C         140.2156  137.9757  157.0769 C.ar    1  UNL1       -0.0001
     25 C         139.9556  139.1866  157.9233 C.ar    1  UNL1        0.0001
     26 C         141.0286  139.7121  158.8302 C.ar    1  UNL1        0.0279
     27 O         143.4346  139.5523  159.7976 O.3     1  UNL1       -0.4713
     28 C         144.0422  138.6581  160.8374 C.3     1  UNL1        0.2278
     29 C         142.0451  137.6401  162.1508 C.2     1  UNL1       -0.0055
     30 C         143.3259  138.4206  162.1337 C.2     1  UNL1       -0.0007
     31 C         143.8903  138.9636  163.4129 C.3     1  UNL1        0.0301
@<TRIPOS>BOND
     1    29    30    2
     2    30    31    1
     3    30    28    1
     4    28    27    1
     5    27    21    1
     6    21    22   ar
     7    22    23   ar
     8    23    24   ar
     9    24    25   ar
    10    25    26   ar
    11    26    20    1
    12    20     1    1
    13     1     2    1
    14     2     3    1
    15     3     4    1
    16     4     5    1
    17     5     6    1
    18     4     7    1
    19     7     8    1
    20     8     9    1
    21     9    10   am
    22    10    11    2
    23    10    14    1
    24    14    15   ar
    25    15    16   ar
    26    16    17   ar
    27    17    18   ar
    28    18    19   ar
    29     9    12    1
    30    12    13    1
    31    26    21   ar
    32     6     1    1
    33    19    14   ar
    34    13     4    1
@<TRIPOS>MOLECULE
*****
 31 34 0 0 0
SMALL
GASTEIGER

@<TRIPOS>ATOM
      1 N         139.8665  138.6878  161.5572 N.3     1  UNL1       -0.2689
      2 C         140.8535  139.6075  162.2128 C.3     1  UNL1        0.0724
      3 C         140.7350  139.9146  163.6762 C.3     1  UNL1        0.0175
      4 C         139.6295  139.3020  164.4840 C.3     1  UNL1        0.0060
      5 C         138.6425  138.3823  163.8284 C.3     1  UNL1        0.0175
      6 C         138.7610  138.0752  162.3650 C.3     1  UNL1        0.0724
      7 C         140.6166  140.2218  165.1397 C.3     1  UNL1        0.0217
      8 C         140.4981  140.5289  166.6031 C.3     1  UNL1        0.0937
      9 N         139.3926  139.9163  167.4109 N.am    1  UNL1       -0.2761
     10 C         139.2741  140.2235  168.8744 C.2     1  UNL1        0.2491
     11 O         138.1686  139.6109  169.6822 O.2     1  UNL1       -0.2699
     12 C         138.4056  138.9966  166.7553 C.3     1  UNL1        0.0937
     13 C         138.5240  138.6894  165.2918 C.3     1  UNL1        0.0217
     14 C         140.2612  141.1432  169.5300 C.ar    1  UNL1        0.0567
     15 C         141.3784  140.5784  170.3563 C.ar    1  UNL1        0.0252
     16 C         142.3655  141.4981  171.0118 C.ar    1  UNL1        0.0990
     17 N         142.2353  142.9827  170.8411 N.ar    1  UNL1       -0.2423
     18 C         141.1180  143.5475  170.0149 C.ar    1  UNL1        0.0990
     19 C         140.1310  142.6277  169.3593 C.ar    1  UNL1        0.0252
     20 C         139.9849  138.3806  160.0937 C.3     1  UNL1        0.1022
     21 C         140.0870  140.5842  158.7213 C.ar    1  UNL1        0.1363
     22 C         140.8357  141.5180  157.8171 C.ar    1  UNL1        0.0366
     23 C         142.2311  141.1819  157.3813 C.ar    1  UNL1        0.0031
     24 C         142.8778  139.9121  157.8496 C.ar    1  UNL1       -0.0001
     25 C         142.1290  138.9783  158.7538 C.ar    1  UNL1        0.0001
     26 C         140.7336  139.3144  159.1896 C.ar    1  UNL1        0.0279
     27 O         138.6916  140.9203  159.1571 O.3     1  UNL1       -0.4713
     28 C         138.4111  142.2315  159.8294 C.3     1  UNL1        0.2278
     29 C         137.7753  141.7772  162.3071 C.2     1  UNL1       -0.0055
     30 C         138.6902  142.3984  161.2937 C.2     1  UNL1       -0.0007
     31 C         139.8842  143.1864  161.7446 C.3     1  UNL1        0.0301
@<TRIPOS>BOND
     1    29    30    2
     2    30    31    1
     3    30    28    1
     4    28    27    1
     5    27    21    1
     6    21    22   ar
     7    22    23   ar
     8    23    24   ar
     9    24    25   ar
    10    25    26   ar
    11    26    20    1
    12    20     1    1
    13     1     2    1
    14     2     3    1
    15     3     4    1
    16     4     5    1
    17     5     6    1
    18     4     7    1
    19     7     8    1
    20     8     9    1
    21     9    10   am
    22    10    11    2
    23    10    14    1
    24    14    15   ar
    25    15    16   ar
    26    16    17   ar
    27    17    18   ar
    28    18    19   ar
    29     9    12    1
    30    12    13    1
    31    26    21   ar
    32     6     1    1
    33    19    14   ar
    34    13     4    1
@<TRIPOS>MOLECULE
*****
 31 34 0 0 0
SMALL
GASTEIGER

@<TRIPOS>ATOM
      1 N         139.0569  141.6878  161.3647 N.3     1  UNL1       -0.2689
      2 C         138.7965  142.4745  162.6150 C.3     1  UNL1        0.0724
      3 C         139.4779  142.0941  163.8960 C.3     1  UNL1        0.0175
      4 C         140.4197  140.9270  163.9267 C.3     1  UNL1        0.0060
      5 C         140.6801  140.1403  162.6764 C.3     1  UNL1        0.0175
      6 C         139.9987  140.5207  161.3954 C.3     1  UNL1        0.0724
      7 C         140.1593  141.7137  165.1771 C.3     1  UNL1        0.0217
      8 C         140.8407  141.3333  166.4581 C.3     1  UNL1        0.0937
      9 N         141.7825  140.1663  166.4888 N.am    1  UNL1       -0.2761
     10 C         142.4640  139.7859  167.7698 C.2     1  UNL1        0.2491
     11 O         143.4058  138.6188  167.8005 O.2     1  UNL1       -0.2699
     12 C         142.0430  139.3796  165.2385 C.3     1  UNL1        0.0937
     13 C         141.3615  139.7599  163.9574 C.3     1  UNL1        0.0217
     14 C         142.2036  140.5726  169.0201 C.ar    1  UNL1        0.0567
     15 C         141.1799  140.0952  170.0071 C.ar    1  UNL1        0.0252
     16 C         140.9195  140.8819  171.2574 C.ar    1  UNL1        0.0990
     17 N         141.6828  142.1461  171.5207 N.ar    1  UNL1       -0.2423
     18 C         142.7065  142.6235  170.5337 C.ar    1  UNL1        0.0990
     19 C         142.9668  141.8367  169.2834 C.ar    1  UNL1        0.0252
     20 C         138.3755  142.0681  160.0837 C.3     1  UNL1        0.1022
     21 C         139.8120  143.9179  158.9589 C.ar    1  UNL1        0.1363
     22 C         140.6223  144.4051  157.7945 C.ar    1  UNL1        0.0366
     23 C         140.8062  143.5300  156.5902 C.ar    1  UNL1        0.0031
     24 C         140.1800  142.1676  156.5504 C.ar    1  UNL1       -0.0001
     25 C         139.3697  141.6803  157.7149 C.ar    1  UNL1        0.0001
     26 C         139.1857  142.5554  158.9192 C.ar    1  UNL1        0.0279
     27 O         139.6281  144.7930  160.1632 O.3     1  UNL1       -0.4713
     28 C         140.8202  145.4173  160.8258 C.3     1  UNL1        0.2278
     29 C         141.5387  145.1885  163.3120 C.2     1  UNL1       -0.0055
     30 C         141.5541  144.6748  161.9029 C.2     1  UNL1       -0.0007
     31 C         142.3034  143.4186  161.5707 C.3     1  UNL1        0.0301
@<TRIPOS>BOND
     1    29    30    2
     2    30    31    1
     3    30    28    1
     4    28    27    1
     5    27    21    1
     6    21    22   ar
     7    22    23   ar
     8    23    24   ar
     9    24    25   ar
    10    25    26   ar
    11    26    20    1
    12    20     1    1
    13     1     2    1
    14     2     3    1
    15     3     4    1
    16     4     5    1
    17     5     6    1
    18     4     7    1
    19     7     8    1
    20     8     9    1
    21     9    10   am
    22    10    11    2
    23    10    14    1
    24    14    15   ar
    25    15    16   ar
    26    16    17   ar
    27    17    18   ar
    28    18    19   ar
    29     9    12    1
    30    12    13    1
    31    26    21   ar
    32     6     1    1
    33    19    14   ar
    34    13     4    1
@<TRIPOS>MOLECULE
*****
 31 34 0 0 0
SMALL
GASTEIGER

@<TRIPOS>ATOM
      1 N         142.3402  142.3249  161.3876 N.3     1  UNL1       -0.2689
      2 C         142.9253  142.8870  162.6492 C.3     1  UNL1        0.0724
      3 C         142.3878  142.4567  163.9818 C.3     1  UNL1        0.0175
      4 C         141.2653  141.4643  164.0528 C.3     1  UNL1        0.0060
      5 C         140.6802  140.9022  162.7912 C.3     1  UNL1        0.0175
      6 C         141.2177  141.3325  161.4586 C.3     1  UNL1        0.0724
      7 C         141.8503  142.0265  165.3145 C.3     1  UNL1        0.0217
      8 C         141.3128  141.5962  166.6471 C.3     1  UNL1        0.0937
      9 N         140.1903  140.6038  166.7182 N.am    1  UNL1       -0.2761
     10 C         139.6528  140.1735  168.0509 C.2     1  UNL1        0.2491
     11 O         138.5303  139.1811  168.1219 O.2     1  UNL1       -0.2699
     12 C         139.6052  140.0416  165.4566 C.3     1  UNL1        0.0937
     13 C         140.1427  140.4719  164.1239 C.3     1  UNL1        0.0217
     14 C         140.2379  140.7356  169.3125 C.ar    1  UNL1        0.0567
     15 C         141.3979  140.0502  169.9717 C.ar    1  UNL1        0.0252
     16 C         141.9829  140.6123  171.2333 C.ar    1  UNL1        0.0990
     17 N         141.4079  141.8600  171.8357 N.ar    1  UNL1       -0.2423
     18 C         140.2479  142.5454  171.1765 C.ar    1  UNL1        0.0990
     19 C         139.6629  141.9832  169.9149 C.ar    1  UNL1        0.0252
     20 C         142.8777  142.7551  160.0549 C.3     1  UNL1        0.1022
     21 C         141.1877  144.6224  159.4167 C.ar    1  UNL1        0.1363
     22 C         140.2762  145.2612  158.4112 C.ar    1  UNL1        0.0366
     23 C         140.1433  144.6717  157.0383 C.ar    1  UNL1        0.0031
     24 C         140.9218  143.4433  156.6710 C.ar    1  UNL1       -0.0001
     25 C         141.8333  142.8044  157.6765 C.ar    1  UNL1        0.0001
     26 C         141.9662  143.3940  159.0494 C.ar    1  UNL1        0.0279
     27 O         141.3206  145.2119  160.7896 O.3     1  UNL1       -0.4713
     28 C         140.0994  145.6688  161.5311 C.3     1  UNL1        0.2278
     29 C         139.7702  144.9171  163.9961 C.2     1  UNL1       -0.0055
     30 C         139.4517  144.7654  162.5382 C.2     1  UNL1       -0.0007
     31 C         138.4855  143.7104  162.0875 C.3     1  UNL1        0.0301
@<TRIPOS>BOND
     1    29    30    2
     2    30    31    1
     3    30    28    1
     4    28    27    1
     5    27    21    1
     6    21    22   ar
     7    22    23   ar
     8    23    24   ar
     9    24    25   ar
    10    25    26   ar
    11    26    20    1
    12    20     1    1
    13     1     2    1
    14     2     3    1
    15     3     4    1
    16     4     5    1
    17     5     6    1
    18     4     7    1
    19     7     8    1
    20     8     9    1
    21     9    10   am
    22    10    11    2
    23    10    14    1
    24    14    15   ar
    25    15    16   ar
    26    16    17   ar
    27    17    18   ar
    28    18    19   ar
    29     9    12    1
    30    12    13    1
    31    26    21   ar
    32     6     1    1
    33    19    14   ar
    34    13     4    1
@<TRIPOS>MOLECULE
*****
 31 34 0 0 0
SMALL
GASTEIGER

@<TRIPOS>ATOM
      1 N         142.4655  139.5639  160.9670 N.3     1  UNL1       -0.2689
      2 C         142.0404  140.7991  161.7041 C.3     1  UNL1        0.0724
      3 C         142.0785  140.8283  163.2033 C.3     1  UNL1        0.0175
      4 C         142.5417  139.6222  163.9654 C.3     1  UNL1        0.0060
      5 C         142.9669  138.3869  163.2283 C.3     1  UNL1        0.0175
      6 C         142.9288  138.3578  161.7291 C.3     1  UNL1        0.0724
      7 C         142.1166  140.8575  164.7026 C.3     1  UNL1        0.0217
      8 C         142.1547  140.8866  166.2018 C.3     1  UNL1        0.0937
      9 N         142.6179  139.6805  166.9639 N.am    1  UNL1       -0.2761
     10 C         142.6560  139.7097  168.4632 C.2     1  UNL1        0.2491
     11 O         143.1193  138.5036  169.2252 O.2     1  UNL1       -0.2699
     12 C         143.0431  138.4453  166.2267 C.3     1  UNL1        0.0937
     13 C         143.0050  138.4161  164.7275 C.3     1  UNL1        0.0217
     14 C         142.2309  140.9449  169.2003 C.ar    1  UNL1        0.0567
     15 C         140.7748  141.2067  169.4480 C.ar    1  UNL1        0.0252
     16 C         140.3497  142.4419  170.1852 C.ar    1  UNL1        0.0990
     17 N         141.3807  143.4155  170.6746 N.ar    1  UNL1       -0.2423
     18 C         142.8367  143.1537  170.4269 C.ar    1  UNL1        0.0990
     19 C         143.2618  141.9184  169.6897 C.ar    1  UNL1        0.0252
     20 C         142.4274  139.5347  159.4677 C.3     1  UNL1        0.1022
     21 C         139.8728  139.4896  158.9965 C.ar    1  UNL1        0.1363
     22 C         138.6770  140.0248  158.2661 C.ar    1  UNL1        0.0366
     23 C         138.8398  141.1402  157.2765 C.ar    1  UNL1        0.0031
     24 C         140.1985  141.7204  157.0173 C.ar    1  UNL1       -0.0001
     25 C         141.3944  141.1853  157.7477 C.ar    1  UNL1        0.0001
     26 C         141.2316  140.0699  158.7373 C.ar    1  UNL1        0.0279
     27 O         139.7099  138.3742  159.9861 O.3     1  UNL1       -0.4713
     28 C         138.5668  138.3939  160.9571 C.3     1  UNL1        0.2278
     29 C         139.3988  137.6659  163.3082 C.2     1  UNL1       -0.0055
     30 C         138.8157  138.7095  162.4022 C.2     1  UNL1       -0.0007
     31 C         138.4814  140.0687  162.9414 C.3     1  UNL1        0.0301
@<TRIPOS>BOND
     1    29    30    2
     2    30    31    1
     3    30    28    1
     4    28    27    1
     5    27    21    1
     6    21    22   ar
     7    22    23   ar
     8    23    24   ar
     9    24    25   ar
    10    25    26   ar
    11    26    20    1
    12    20     1    1
    13     1     2    1
    14     2     3    1
    15     3     4    1
    16     4     5    1
    17     5     6    1
    18     4     7    1
    19     7     8    1
    20     8     9    1
    21     9    10   am
    22    10    11    2
    23    10    14    1
    24    14    15   ar
    25    15    16   ar
    26    16    17   ar
    27    17    18   ar
    28    18    19   ar
    29     9    12    1
    30    12    13    1
    31    26    21   ar
    32     6     1    1
    33    19    14   ar
    34    13     4    1
@<TRIPOS>MOLECULE
*****
 31 34 0 0 0
SMALL
GASTEIGER

@<TRIPOS>ATOM
      1 N         140.3096  139.9431  161.2828 N.3     1  UNL1       -0.2689
      2 C         141.2327  140.6619  162.2215 C.3     1  UNL1        0.0724
      3 C         140.9620  140.6479  163.6968 C.3     1  UNL1        0.0175
      4 C         139.7683  139.9151  164.2334 C.3     1  UNL1        0.0060
      5 C         138.8452  139.1963  163.2947 C.3     1  UNL1        0.0175
      6 C         139.1158  139.2103  161.8195 C.3     1  UNL1        0.0724
      7 C         140.6914  140.6339  165.1722 C.3     1  UNL1        0.0217
      8 C         140.4208  140.6199  166.6474 C.3     1  UNL1        0.0937
      9 N         139.2270  139.8871  167.1841 N.am    1  UNL1       -0.2761
     10 C         138.9564  139.8731  168.6594 C.2     1  UNL1        0.2491
     11 O         137.7627  139.1403  169.1961 O.2     1  UNL1       -0.2699
     12 C         138.3039  139.1683  166.2454 C.3     1  UNL1        0.0937
     13 C         138.5745  139.1823  164.7700 C.3     1  UNL1        0.0217
     14 C         139.8795  140.5919  169.5981 C.ar    1  UNL1        0.0567
     15 C         139.5988  142.0141  169.9836 C.ar    1  UNL1        0.0252
     16 C         140.5219  142.7329  170.9223 C.ar    1  UNL1        0.0990
     17 N         141.7259  142.0295  171.4755 N.ar    1  UNL1       -0.2423
     18 C         142.0066  140.6073  171.0899 C.ar    1  UNL1        0.0990
     19 C         141.0834  139.8885  170.1512 C.ar    1  UNL1        0.0252
     20 C         140.5802  139.9570  159.8075 C.3     1  UNL1        0.1022
     21 C         139.4961  142.1660  158.9735 C.ar    1  UNL1        0.1363
     22 C         138.5617  142.8853  158.0464 C.ar    1  UNL1        0.0366
     23 C         137.7771  142.1150  157.0261 C.ar    1  UNL1        0.0031
     24 C         137.9268  140.6254  156.9329 C.ar    1  UNL1       -0.0001
     25 C         138.8612  139.9061  157.8600 C.ar    1  UNL1        0.0001
     26 C         139.6458  140.6763  158.8804 C.ar    1  UNL1        0.0279
     27 O         140.2807  142.9362  159.9939 O.3     1  UNL1       -0.4713
     28 C         139.5975  143.9652  160.8450 C.3     1  UNL1        0.2278
     29 C         137.8710  142.6573  162.2798 C.2     1  UNL1       -0.0055
     30 C         139.0476  143.5831  162.1873 C.2     1  UNL1       -0.0007
     31 C         139.6742  144.1267  163.4369 C.3     1  UNL1        0.0301
@<TRIPOS>BOND
     1    29    30    2
     2    30    31    1
     3    30    28    1
     4    28    27    1
     5    27    21    1
     6    21    22   ar
     7    22    23   ar
     8    23    24   ar
     9    24    25   ar
    10    25    26   ar
    11    26    20    1
    12    20     1    1
    13     1     2    1
    14     2     3    1
    15     3     4    1
    16     4     5    1
    17     5     6    1
    18     4     7    1
    19     7     8    1
    20     8     9    1
    21     9    10   am
    22    10    11    2
    23    10    14    1
    24    14    15   ar
    25    15    16   ar
    26    16    17   ar
    27    17    18   ar
    28    18    19   ar
    29     9    12    1
    30    12    13    1
    31    26    21   ar
    32     6     1    1
    33    19    14   ar
    34    13     4    1
@<TRIPOS>MOLECULE
*****
 31 34 0 0 0
SMALL
GASTEIGER

@<TRIPOS>ATOM
      1 N         142.6911  139.5061  166.2114 N.3     1  UNL1       -0.2689
      2 C         142.8850  140.7694  165.4262 C.3     1  UNL1        0.0724
      3 C         142.9714  140.7164  163.9296 C.3     1  UNL1        0.0175
      4 C         142.8639  139.4002  163.2183 C.3     1  UNL1        0.0060
      5 C         142.6699  138.1370  164.0035 C.3     1  UNL1        0.0175
      6 C         142.5835  138.1899  165.5000 C.3     1  UNL1        0.0724
      7 C         143.0578  140.6635  162.4330 C.3     1  UNL1        0.0217
      8 C         143.1442  140.6105  160.9365 C.3     1  UNL1        0.0937
      9 N         143.0367  139.2943  160.2251 N.am    1  UNL1       -0.2761
     10 C         143.1231  139.2414  158.7285 C.2     1  UNL1        0.2491
     11 O         143.0155  137.9252  158.0171 O.2     1  UNL1       -0.2699
     12 C         142.8427  138.0311  161.0103 C.3     1  UNL1        0.0937
     13 C         142.7563  138.0840  162.5069 C.3     1  UNL1        0.0217
     14 C         143.3170  140.5047  157.9433 C.ar    1  UNL1        0.0567
     15 C         142.1275  141.3125  157.5164 C.ar    1  UNL1        0.0252
     16 C         142.3214  142.5758  156.7312 C.ar    1  UNL1        0.0990
     17 N         143.7050  143.0312  156.3729 N.ar    1  UNL1       -0.2423
     18 C         144.8946  142.2233  156.7998 C.ar    1  UNL1        0.0990
     19 C         144.7006  140.9600  157.5850 C.ar    1  UNL1        0.0252
     20 C         142.6047  139.5591  167.7080 C.3     1  UNL1        0.1022
     21 C         140.6853  141.2021  168.3134 C.ar    1  UNL1        0.1363
     22 C         140.2117  142.4523  168.9936 C.ar    1  UNL1        0.0366
     23 C         141.1838  143.3097  169.7485 C.ar    1  UNL1        0.0031
     24 C         142.6295  142.9169  169.8233 C.ar    1  UNL1       -0.0001
     25 C         143.1032  141.6666  169.1431 C.ar    1  UNL1        0.0001
     26 C         142.1311  140.8092  168.3882 C.ar    1  UNL1        0.0279
     27 O         139.7132  140.3447  167.5584 O.3     1  UNL1       -0.4713
     28 C         139.2853  140.7359  166.1750 C.3     1  UNL1        0.2278
     29 C         139.2773  140.0736  163.6628 C.2     1  UNL1       -0.0055
     30 C         139.1517  139.6905  165.1076 C.2     1  UNL1       -0.0007
     31 C         138.8925  138.2621  165.4850 C.3     1  UNL1        0.0301
@<TRIPOS>BOND
     1    29    30    2
     2    30    31    1
     3    30    28    1
     4    28    27    1
     5    27    21    1
     6    21    22   ar
     7    22    23   ar
     8    23    24   ar
     9    24    25   ar
    10    25    26   ar
    11    26    20    1
    12    20     1    1
    13     1     2    1
    14     2     3    1
    15     3     4    1
    16     4     5    1
    17     5     6    1
    18     4     7    1
    19     7     8    1
    20     8     9    1
    21     9    10   am
    22    10    11    2
    23    10    14    1
    24    14    15   ar
    25    15    16   ar
    26    16    17   ar
    27    17    18   ar
    28    18    19   ar
    29     9    12    1
    30    12    13    1
    31    26    21   ar
    32     6     1    1
    33    19    14   ar
    34    13     4    1
