@<TRIPOS>MOLECULE
*****
 35 38 0 0 0
SMALL
GASTEIGER

@<TRIPOS>ATOM
      1 N         142.1758  141.7430  167.2126 N.3     1  UNL1       -0.2653
      2 C         142.8785  142.1271  165.9443 C.3     1  UNL1        0.1036
      3 C         142.1689  142.9562  164.9152 C.3     1  UNL1        0.1470
      4 C         141.4593  143.7853  163.8861 C.3     1  UNL1        0.1035
      5 N         140.0469  144.2303  164.1253 N.3     1  UNL1       -0.2673
      6 C         139.3442  143.8462  165.3937 C.3     1  UNL1        0.1035
      7 C         140.0538  143.0171  166.4228 C.3     1  UNL1        0.1470
      8 C         140.7634  142.1881  167.4518 C.3     1  UNL1        0.1036
      9 O         140.7565  143.4012  165.1545 O.3     1  UNL1       -0.3530
     10 C         142.8854  140.9139  168.2417 C.3     1  UNL1        0.1202
     11 C         142.5995  139.4453  168.3488 C.3     1  UNL1        0.2226
     12 O         143.4248  138.4620  167.5728 O.3     1  UNL1       -0.4740
     13 C         143.7840  138.8575  163.1046 C.ar    1  UNL1        0.0686
     14 C         144.9353  139.2408  163.9865 C.ar    1  UNL1        0.0134
     15 C         144.8156  139.1090  165.4758 C.ar    1  UNL1        0.0376
     16 C         143.5446  138.5939  166.0834 C.ar    1  UNL1        0.1387
     17 C         142.3933  138.2105  165.2016 C.ar    1  UNL1        0.0376
     18 C         142.5130  138.3424  163.7122 C.ar    1  UNL1        0.0134
     19 N         144.0235  139.1211  160.1259 N.1     1  UNL1       -0.1908
     20 C         143.9038  138.9893  161.6152 C.1     1  UNL1        0.1004
     21 C         139.3373  145.0594  163.0962 C.3     1  UNL1        0.0913
     22 C         138.0644  144.5606  162.4789 C.3     1  UNL1        0.1087
     23 N         138.0803  143.3355  161.6136 N.3     1  UNL1       -0.1780
     24 H         138.8389  143.4585  160.9429 H       1  UNL1        0.1488
     25 S         138.2654  141.9821  162.2332 S.O2    1  UNL1        0.0603
     26 O         139.5498  141.8117  161.4775 O.2     1  UNL1       -0.1530
     27 O         136.9809  142.1525  162.9889 O.2     1  UNL1       -0.1530
     28 C         138.4504  140.6286  162.8529 C.ar    1  UNL1        0.1226
     29 C         138.9194  139.4773  162.0136 C.ar    1  UNL1        0.0199
     30 C         139.1044  138.1238  162.6333 C.ar    1  UNL1        0.0021
     31 C         138.8204  137.9218  164.0922 C.ar    1  UNL1        0.0104
     32 C         138.3514  139.0731  164.9315 C.ar    1  UNL1        0.0698
     33 C         138.1664  140.4265  164.3119 C.ar    1  UNL1        0.0302
     34 C         138.0674  138.8710  166.3905 C.1     1  UNL1        0.1005
     35 N         137.7835  138.6689  167.8494 N.1     1  UNL1       -0.1908
@<TRIPOS>BOND
     1    19    20    3
     2    20    13    1
     3    13    14   ar
     4    14    15   ar
     5    15    16   ar
     6    16    12    1
     7    12    11    1
     8    11    10    1
     9    10     1    1
    10     1     2    1
    11     2     3    1
    12     3     4    1
    13     4     5    1
    14     5    21    1
    15    21    22    1
    16    22    23    1
    17    23    25    1
    18    25    26    2
    19    25    27    2
    20    25    28    1
    21    28    29   ar
    22    29    30   ar
    23    30    31   ar
    24    31    32   ar
    25    32    34    1
    26    34    35    3
    27    32    33   ar
    28     5     6    1
    29     6     7    1
    30     7     8    1
    31     7     9    1
    32    16    17   ar
    33    17    18   ar
    34    18    13   ar
    35     8     1    1
    36     9     3    1
    37    33    28   ar
    38    23    24    1
@<TRIPOS>MOLECULE
*****
 35 38 0 0 0
SMALL
GASTEIGER

@<TRIPOS>ATOM
      1 N         141.6848  144.2127  161.6582 N.3     1  UNL1       -0.2653
      2 C         141.7513  142.8653  161.0025 C.3     1  UNL1        0.1036
      3 C         142.6118  141.7867  161.5906 C.3     1  UNL1        0.1470
      4 C         143.4724  140.7079  162.1788 C.3     1  UNL1        0.1035
      5 N         144.2664  140.9767  163.4227 N.3     1  UNL1       -0.2673
      6 C         144.1999  142.3241  164.0784 C.3     1  UNL1        0.1035
      7 C         143.3394  143.4028  163.4903 C.3     1  UNL1        0.1470
      8 C         142.4788  144.4815  162.9022 C.3     1  UNL1        0.1036
      9 O         143.4058  142.0554  162.8345 O.3     1  UNL1       -0.3530
     10 C         140.8243  145.2915  161.0701 C.3     1  UNL1        0.1202
     11 C         139.8666  146.0465  161.9434 C.3     1  UNL1        0.2226
     12 O         138.5251  145.4591  162.2683 O.3     1  UNL1       -0.4740
     13 C         138.2567  141.5548  164.4896 C.ar    1  UNL1        0.0686
     14 C         137.6364  141.6886  163.1304 C.ar    1  UNL1        0.0134
     15 C         137.7259  142.9901  162.3900 C.ar    1  UNL1        0.0376
     16 C         138.4356  144.1577  163.0087 C.ar    1  UNL1        0.1387
     17 C         139.0559  144.0239  164.3679 C.ar    1  UNL1        0.0376
     18 C         138.9664  142.7225  165.1084 C.ar    1  UNL1        0.0134
     19 N         138.0778  138.9520  165.9704 N.1     1  UNL1       -0.1908
     20 C         138.1672  140.2534  165.2300 C.1     1  UNL1        0.1004
     21 C         145.1269  139.8980  164.0108 C.3     1  UNL1        0.0913
     22 C         144.6158  139.0696  165.1522 C.3     1  UNL1        0.1087
     23 N         143.1398  138.8772  165.3373 N.3     1  UNL1       -0.1780
     24 H         143.0011  137.9025  165.6040 H       1  UNL1        0.1488
     25 S         142.3945  139.7102  166.3376 S.O2    1  UNL1        0.0603
     26 O         141.5878  140.3192  165.2293 O.2     1  UNL1       -0.1530
     27 O         143.2013  139.1012  167.4458 O.2     1  UNL1       -0.1530
     28 C         141.6492  140.5432  167.3380 C.ar    1  UNL1        0.1226
     29 C         142.0269  141.9796  167.5477 C.ar    1  UNL1        0.0199
     30 C         141.2816  142.8127  168.5481 C.ar    1  UNL1        0.0021
     31 C         140.1588  142.2092  169.3386 C.ar    1  UNL1        0.0104
     32 C         139.7811  140.7728  169.1288 C.ar    1  UNL1        0.0698
     33 C         140.5264  139.9398  168.1285 C.ar    1  UNL1        0.0302
     34 C         138.6582  140.1693  169.9194 C.1     1  UNL1        0.1005
     35 N         137.5353  139.5659  170.7099 N.1     1  UNL1       -0.1908
@<TRIPOS>BOND
     1    19    20    3
     2    20    13    1
     3    13    14   ar
     4    14    15   ar
     5    15    16   ar
     6    16    12    1
     7    12    11    1
     8    11    10    1
     9    10     1    1
    10     1     2    1
    11     2     3    1
    12     3     4    1
    13     4     5    1
    14     5    21    1
    15    21    22    1
    16    22    23    1
    17    23    25    1
    18    25    26    2
    19    25    27    2
    20    25    28    1
    21    28    29   ar
    22    29    30   ar
    23    30    31   ar
    24    31    32   ar
    25    32    34    1
    26    34    35    3
    27    32    33   ar
    28     5     6    1
    29     6     7    1
    30     7     8    1
    31     7     9    1
    32    16    17   ar
    33    17    18   ar
    34    18    13   ar
    35     8     1    1
    36     9     3    1
    37    33    28   ar
    38    23    24    1
@<TRIPOS>MOLECULE
*****
 35 38 0 0 0
SMALL
GASTEIGER

@<TRIPOS>ATOM
      1 N         141.1535  138.1503  164.3186 N.3     1  UNL1       -0.2653
      2 C         142.2733  138.5590  165.2290 C.3     1  UNL1        0.1036
      3 C         143.3007  139.5452  164.7582 C.3     1  UNL1        0.1470
      4 C         144.3282  140.5315  164.2874 C.3     1  UNL1        0.1035
      5 N         144.2357  141.1091  162.9061 N.3     1  UNL1       -0.2673
      6 C         143.1158  140.7004  161.9957 C.3     1  UNL1        0.1035
      7 C         142.0884  139.7142  162.4665 C.3     1  UNL1        0.1470
      8 C         141.0610  138.7279  162.9374 C.3     1  UNL1        0.1036
      9 O         143.2083  140.1228  163.3769 O.3     1  UNL1       -0.3530
     10 C         140.1260  137.1640  164.7894 C.3     1  UNL1        0.1202
     11 C         138.8232  137.6494  165.3526 C.3     1  UNL1        0.2226
     12 O         138.4937  139.1126  165.3271 O.3     1  UNL1       -0.4740
     13 C         140.3596  141.8920  168.3343 C.ar    1  UNL1        0.0686
     14 C         139.6985  140.6258  168.7924 C.ar    1  UNL1        0.0134
     15 C         139.0766  139.6993  167.7900 C.ar    1  UNL1        0.0376
     16 C         139.1157  140.0390  166.3295 C.ar    1  UNL1        0.1387
     17 C         139.7767  141.3051  165.8714 C.ar    1  UNL1        0.0376
     18 C         140.3987  142.2316  166.8738 C.ar    1  UNL1        0.0134
     19 N         141.6035  143.7448  170.3391 N.1     1  UNL1       -0.1908
     20 C         140.9815  142.8184  169.3367 C.1     1  UNL1        0.1004
     21 C         145.2631  142.0954  162.4353 C.3     1  UNL1        0.0913
     22 C         144.8314  143.3648  161.7627 C.3     1  UNL1        0.1087
     23 N         144.0990  144.4155  162.5434 N.3     1  UNL1       -0.1780
     24 H         144.2041  145.2906  162.0300 H       1  UNL1        0.1488
     25 S         142.6352  144.2540  162.8285 S.O2    1  UNL1        0.0603
     26 O         142.3277  144.4808  161.3780 O.2     1  UNL1       -0.1530
     27 O         142.9428  144.0271  164.2790 O.2     1  UNL1       -0.1530
     28 C         141.1714  144.0925  163.1137 C.ar    1  UNL1        0.1226
     29 C         140.4983  144.9884  164.1107 C.ar    1  UNL1        0.0199
     30 C         139.0345  144.8269  164.3959 C.ar    1  UNL1        0.0021
     31 C         138.2440  143.7695  163.6841 C.ar    1  UNL1        0.0104
     32 C         138.9172  142.8735  162.6870 C.ar    1  UNL1        0.0698
     33 C         140.3809  143.0350  162.4018 C.ar    1  UNL1        0.0302
     34 C         138.1265  141.8160  161.9752 C.1     1  UNL1        0.1005
     35 N         137.3359  140.7586  161.2633 N.1     1  UNL1       -0.1908
@<TRIPOS>BOND
     1    19    20    3
     2    20    13    1
     3    13    14   ar
     4    14    15   ar
     5    15    16   ar
     6    16    12    1
     7    12    11    1
     8    11    10    1
     9    10     1    1
    10     1     2    1
    11     2     3    1
    12     3     4    1
    13     4     5    1
    14     5    21    1
    15    21    22    1
    16    22    23    1
    17    23    25    1
    18    25    26    2
    19    25    27    2
    20    25    28    1
    21    28    29   ar
    22    29    30   ar
    23    30    31   ar
    24    31    32   ar
    25    32    34    1
    26    34    35    3
    27    32    33   ar
    28     5     6    1
    29     6     7    1
    30     7     8    1
    31     7     9    1
    32    16    17   ar
    33    17    18   ar
    34    18    13   ar
    35     8     1    1
    36     9     3    1
    37    33    28   ar
    38    23    24    1
@<TRIPOS>MOLECULE
*****
 35 38 0 0 0
SMALL
GASTEIGER

@<TRIPOS>ATOM
      1 N         141.3313  145.0588  162.5762 N.3     1  UNL1       -0.2653
      2 C         142.0800  144.3231  161.5047 C.3     1  UNL1        0.1036
      3 C         143.0511  143.2418  161.8759 C.3     1  UNL1        0.1470
      4 C         144.0222  142.1604  162.2471 C.3     1  UNL1        0.1035
      5 N         144.2445  141.8149  163.6897 N.3     1  UNL1       -0.2673
      6 C         143.4958  142.5507  164.7612 C.3     1  UNL1        0.1035
      7 C         142.5247  143.6320  164.3900 C.3     1  UNL1        0.1470
      8 C         141.5537  144.7133  164.0188 C.3     1  UNL1        0.1036
      9 O         143.2734  142.8962  163.3185 O.3     1  UNL1       -0.3530
     10 C         140.3602  146.1402  162.2051 C.3     1  UNL1        0.1202
     11 C         138.9736  145.7822  161.7589 C.3     1  UNL1        0.2226
     12 O         138.0852  144.9677  162.6520 O.3     1  UNL1       -0.4740
     13 C         137.9367  140.4927  162.2022 C.ar    1  UNL1        0.0686
     14 C         138.2920  141.3533  161.0261 C.ar    1  UNL1        0.0134
     15 C         138.3415  142.8450  161.1760 C.ar    1  UNL1        0.0376
     16 C         138.0357  143.4760  162.5020 C.ar    1  UNL1        0.1387
     17 C         137.6804  142.6155  163.6781 C.ar    1  UNL1        0.0376
     18 C         137.6309  141.1237  163.5282 C.ar    1  UNL1        0.0134
     19 N         137.8377  137.5094  161.9023 N.1     1  UNL1       -0.1908
     20 C         137.8872  139.0010  162.0522 C.1     1  UNL1        0.1004
     21 C         145.2156  140.7336  164.0608 C.3     1  UNL1        0.0913
     22 C         144.7110  139.3973  164.5192 C.3     1  UNL1        0.1087
     23 N         143.4441  138.8366  163.9444 N.3     1  UNL1       -0.1780
     24 H         143.6222  137.8525  163.7436 H       1  UNL1        0.1488
     25 S         142.1716  138.8936  164.7364 S.O2    1  UNL1        0.0603
     26 O         141.5381  139.7227  163.6589 O.2     1  UNL1       -0.1530
     27 O         142.8051  138.0644  165.8139 O.2     1  UNL1       -0.1530
     28 C         140.8990  138.9505  165.5285 C.ar    1  UNL1        0.1226
     29 C         139.6738  138.2422  165.0314 C.ar    1  UNL1        0.0199
     30 C         138.4013  138.2991  165.8234 C.ar    1  UNL1        0.0021
     31 C         138.3540  139.0644  167.1126 C.ar    1  UNL1        0.0104
     32 C         139.5792  139.7727  167.6098 C.ar    1  UNL1        0.0698
     33 C         140.8517  139.7158  166.8177 C.ar    1  UNL1        0.0302
     34 C         139.5318  140.5380  168.8990 C.1     1  UNL1        0.1005
     35 N         139.4844  141.3033  170.1882 N.1     1  UNL1       -0.1908
@<TRIPOS>BOND
     1    19    20    3
     2    20    13    1
     3    13    14   ar
     4    14    15   ar
     5    15    16   ar
     6    16    12    1
     7    12    11    1
     8    11    10    1
     9    10     1    1
    10     1     2    1
    11     2     3    1
    12     3     4    1
    13     4     5    1
    14     5    21    1
    15    21    22    1
    16    22    23    1
    17    23    25    1
    18    25    26    2
    19    25    27    2
    20    25    28    1
    21    28    29   ar
    22    29    30   ar
    23    30    31   ar
    24    31    32   ar
    25    32    34    1
    26    34    35    3
    27    32    33   ar
    28     5     6    1
    29     6     7    1
    30     7     8    1
    31     7     9    1
    32    16    17   ar
    33    17    18   ar
    34    18    13   ar
    35     8     1    1
    36     9     3    1
    37    33    28   ar
    38    23    24    1
@<TRIPOS>MOLECULE
*****
 35 38 0 0 0
SMALL
GASTEIGER

@<TRIPOS>ATOM
      1 N         138.8794  139.3397  162.9691 N.3     1  UNL1       -0.2653
      2 C         138.0781  140.5963  163.1396 C.3     1  UNL1        0.1036
      3 C         138.3361  141.7767  162.2509 C.3     1  UNL1        0.1470
      4 C         138.5941  142.9572  161.3620 C.3     1  UNL1        0.1035
      5 N         139.6533  142.8811  160.3026 N.3     1  UNL1       -0.2673
      6 C         140.4545  141.6245  160.1321 C.3     1  UNL1        0.1035
      7 C         140.1965  140.4440  161.0209 C.3     1  UNL1        0.1470
      8 C         139.9386  139.2636  161.9097 C.3     1  UNL1        0.1036
      9 O         139.3953  141.7006  161.1915 O.3     1  UNL1       -0.3530
     10 C         138.6214  138.1592  163.8579 C.3     1  UNL1        0.1202
     11 C         138.9451  138.2367  165.3205 C.3     1  UNL1        0.2226
     12 O         140.2504  138.8236  165.7697 O.3     1  UNL1       -0.4740
     13 C         140.2882  142.3926  168.5102 C.ar    1  UNL1        0.0686
     14 C         140.5810  142.5657  167.0492 C.ar    1  UNL1        0.0134
     15 C         140.5684  141.3760  166.1357 C.ar    1  UNL1        0.0376
     16 C         140.2630  140.0132  166.6831 C.ar    1  UNL1        0.1387
     17 C         139.9703  139.8402  168.1440 C.ar    1  UNL1        0.0376
     18 C         139.9829  141.0299  169.0576 C.ar    1  UNL1        0.0134
     19 N         140.3134  144.7719  170.3372 N.1     1  UNL1       -0.1908
     20 C         140.3008  143.5823  169.4237 C.1     1  UNL1        0.1004
     21 C         139.9113  144.0615  159.4138 C.3     1  UNL1        0.0913
     22 C         141.1696  144.8617  159.5761 C.3     1  UNL1        0.1087
     23 N         141.5118  145.4594  160.9087 N.3     1  UNL1       -0.1780
     24 H         140.6413  145.8141  161.3045 H       1  UNL1        0.1488
     25 S         142.1557  144.6135  161.9669 S.O2    1  UNL1        0.0603
     26 O         141.1574  145.1093  162.9706 O.2     1  UNL1       -0.1530
     27 O         143.1540  144.1177  160.9631 O.2     1  UNL1       -0.1530
     28 C         142.7997  143.7676  163.0251 C.ar    1  UNL1        0.1226
     29 C         143.5494  144.4165  164.1506 C.ar    1  UNL1        0.0199
     30 C         144.1934  143.5706  165.2088 C.ar    1  UNL1        0.0021
     31 C         144.0876  142.0759  165.1415 C.ar    1  UNL1        0.0104
     32 C         143.3378  141.4270  164.0160 C.ar    1  UNL1        0.0698
     33 C         142.6938  142.2729  162.9578 C.ar    1  UNL1        0.0302
     34 C         143.2320  139.9322  163.9487 C.1     1  UNL1        0.1005
     35 N         143.1261  138.4375  163.8814 N.1     1  UNL1       -0.1908
@<TRIPOS>BOND
     1    19    20    3
     2    20    13    1
     3    13    14   ar
     4    14    15   ar
     5    15    16   ar
     6    16    12    1
     7    12    11    1
     8    11    10    1
     9    10     1    1
    10     1     2    1
    11     2     3    1
    12     3     4    1
    13     4     5    1
    14     5    21    1
    15    21    22    1
    16    22    23    1
    17    23    25    1
    18    25    26    2
    19    25    27    2
    20    25    28    1
    21    28    29   ar
    22    29    30   ar
    23    30    31   ar
    24    31    32   ar
    25    32    34    1
    26    34    35    3
    27    32    33   ar
    28     5     6    1
    29     6     7    1
    30     7     8    1
    31     7     9    1
    32    16    17   ar
    33    17    18   ar
    34    18    13   ar
    35     8     1    1
    36     9     3    1
    37    33    28   ar
    38    23    24    1
@<TRIPOS>MOLECULE
*****
 35 38 0 0 0
SMALL
GASTEIGER

@<TRIPOS>ATOM
      1 N         141.0735  144.1476  160.5426 N.3     1  UNL1       -0.2653
      2 C         140.3520  142.9922  159.9148 C.3     1  UNL1        0.1036
      3 C         141.0018  141.6413  159.8623 C.3     1  UNL1        0.1470
      4 C         141.6517  140.2903  159.8098 C.3     1  UNL1        0.1035
      5 N         143.0231  140.0950  160.3852 N.3     1  UNL1       -0.2673
      6 C         143.7447  141.2505  161.0131 C.3     1  UNL1        0.1035
      7 C         143.0948  142.6014  161.0655 C.3     1  UNL1        0.1470
      8 C         142.4449  143.9522  161.1180 C.3     1  UNL1        0.1036
      9 O         142.3733  141.4459  160.4377 O.3     1  UNL1       -0.3530
     10 C         140.4236  145.4986  160.5951 C.3     1  UNL1        0.1202
     11 C         139.8752  146.0171  161.8913 C.3     1  UNL1        0.2226
     12 O         138.5561  145.5169  162.4012 O.3     1  UNL1       -0.4740
     13 C         138.3257  141.5727  164.5553 C.ar    1  UNL1        0.0686
     14 C         139.1100  142.7060  165.1475 C.ar    1  UNL1        0.0134
     15 C         139.1867  144.0207  164.4294 C.ar    1  UNL1        0.0376
     16 C         138.4793  144.2022  163.1192 C.ar    1  UNL1        0.1387
     17 C         137.6951  143.0690  162.5271 C.ar    1  UNL1        0.0376
     18 C         137.6183  141.7542  163.2451 C.ar    1  UNL1        0.0134
     19 N         138.1722  138.9433  165.9914 N.1     1  UNL1       -0.1908
     20 C         138.2489  140.2580  165.2733 C.1     1  UNL1        0.1004
     21 C         143.6730  138.7441  160.3327 C.3     1  UNL1        0.0913
     22 C         143.8665  137.9554  161.5939 C.3     1  UNL1        0.1087
     23 N         142.7437  137.8317  162.5809 N.3     1  UNL1       -0.1780
     24 H         142.8412  136.9186  163.0248 H       1  UNL1        0.1488
     25 S         142.6016  138.8371  163.6849 S.O2    1  UNL1        0.0603
     26 O         141.1105  138.7996  163.5271 O.2     1  UNL1       -0.1530
     27 O         144.0928  138.8746  163.8427 O.2     1  UNL1       -0.1530
     28 C         142.4596  139.8425  164.7891 C.ar    1  UNL1        0.1226
     29 C         143.0528  141.2118  164.6374 C.ar    1  UNL1        0.0199
     30 C         142.9108  142.2172  165.7414 C.ar    1  UNL1        0.0021
     31 C         142.1755  141.8533  166.9972 C.ar    1  UNL1        0.0104
     32 C         141.5823  140.4839  167.1488 C.ar    1  UNL1        0.0698
     33 C         141.7243  139.4785  166.0448 C.ar    1  UNL1        0.0302
     34 C         140.8470  140.1200  168.4047 C.1     1  UNL1        0.1005
     35 N         140.1118  139.7561  169.6604 N.1     1  UNL1       -0.1908
@<TRIPOS>BOND
     1    19    20    3
     2    20    13    1
     3    13    14   ar
     4    14    15   ar
     5    15    16   ar
     6    16    12    1
     7    12    11    1
     8    11    10    1
     9    10     1    1
    10     1     2    1
    11     2     3    1
    12     3     4    1
    13     4     5    1
    14     5    21    1
    15    21    22    1
    16    22    23    1
    17    23    25    1
    18    25    26    2
    19    25    27    2
    20    25    28    1
    21    28    29   ar
    22    29    30   ar
    23    30    31   ar
    24    31    32   ar
    25    32    34    1
    26    34    35    3
    27    32    33   ar
    28     5     6    1
    29     6     7    1
    30     7     8    1
    31     7     9    1
    32    16    17   ar
    33    17    18   ar
    34    18    13   ar
    35     8     1    1
    36     9     3    1
    37    33    28   ar
    38    23    24    1
@<TRIPOS>MOLECULE
*****
 35 38 0 0 0
SMALL
GASTEIGER

@<TRIPOS>ATOM
      1 N         139.2961  137.6548  164.4676 N.3     1  UNL1       -0.2653
      2 C         138.7462  137.9472  163.1030 C.3     1  UNL1        0.1036
      3 C         139.6795  138.1625  161.9487 C.3     1  UNL1        0.1470
      4 C         140.6128  138.3779  160.7943 C.3     1  UNL1        0.1035
      5 N         142.0960  138.3009  161.0046 N.3     1  UNL1       -0.2673
      6 C         142.6459  138.0084  162.3692 C.3     1  UNL1        0.1035
      7 C         141.7126  137.7931  163.5235 C.3     1  UNL1        0.1470
      8 C         140.7793  137.5777  164.6779 C.3     1  UNL1        0.1036
      9 O         141.1627  138.0855  162.1590 O.3     1  UNL1       -0.3530
     10 C         138.3627  137.4394  165.6220 C.3     1  UNL1        0.1202
     11 C         137.9974  138.5876  166.5154 C.3     1  UNL1        0.2226
     12 O         138.4694  139.9731  166.1871 O.3     1  UNL1       -0.4740
     13 C         142.0451  141.6937  168.3094 C.ar    1  UNL1        0.0686
     14 C         141.7466  142.0963  166.8955 C.ar    1  UNL1        0.0134
     15 C         140.5548  141.5227  166.1881 C.ar    1  UNL1        0.0376
     16 C         139.6613  140.5466  166.8945 C.ar    1  UNL1        0.1387
     17 C         139.9597  140.1441  168.3083 C.ar    1  UNL1        0.0376
     18 C         141.1516  140.7177  169.0158 C.ar    1  UNL1        0.0134
     19 N         144.4288  142.8408  169.7242 N.1     1  UNL1       -0.1908
     20 C         143.2369  142.2673  169.0168 C.1     1  UNL1        0.1004
     21 C         143.0293  138.5162  159.8502 C.3     1  UNL1        0.0913
     22 C         143.6390  139.8674  159.6206 C.3     1  UNL1        0.1087
     23 N         144.4820  140.5009  160.6873 N.3     1  UNL1       -0.1780
     24 H         145.3523  140.7908  160.2413 H       1  UNL1        0.1488
     25 S         143.9663  141.6892  161.4437 S.O2    1  UNL1        0.0603
     26 O         144.3296  141.0231  162.7376 O.2     1  UNL1       -0.1530
     27 O         143.6031  142.3553  160.1497 O.2     1  UNL1       -0.1530
     28 C         143.4506  142.8775  162.2001 C.ar    1  UNL1        0.1226
     29 C         144.1397  143.3243  163.4553 C.ar    1  UNL1        0.0199
     30 C         143.6241  144.5125  164.2117 C.ar    1  UNL1        0.0021
     31 C         142.4194  145.2539  163.7129 C.ar    1  UNL1        0.0104
     32 C         141.7303  144.8071  162.4577 C.ar    1  UNL1        0.0698
     33 C         142.2459  143.6189  161.7013 C.ar    1  UNL1        0.0302
     34 C         140.5255  145.5487  161.9588 C.1     1  UNL1        0.1005
     35 N         139.3208  146.2902  161.4600 N.1     1  UNL1       -0.1908
@<TRIPOS>BOND
     1    19    20    3
     2    20    13    1
     3    13    14   ar
     4    14    15   ar
     5    15    16   ar
     6    16    12    1
     7    12    11    1
     8    11    10    1
     9    10     1    1
    10     1     2    1
    11     2     3    1
    12     3     4    1
    13     4     5    1
    14     5    21    1
    15    21    22    1
    16    22    23    1
    17    23    25    1
    18    25    26    2
    19    25    27    2
    20    25    28    1
    21    28    29   ar
    22    29    30   ar
    23    30    31   ar
    24    31    32   ar
    25    32    34    1
    26    34    35    3
    27    32    33   ar
    28     5     6    1
    29     6     7    1
    30     7     8    1
    31     7     9    1
    32    16    17   ar
    33    17    18   ar
    34    18    13   ar
    35     8     1    1
    36     9     3    1
    37    33    28   ar
    38    23    24    1
@<TRIPOS>MOLECULE
*****
 35 38 0 0 0
SMALL
GASTEIGER

@<TRIPOS>ATOM
      1 N         142.4046  139.9962  159.7147 N.3     1  UNL1       -0.2653
      2 C         140.9197  140.2024  159.7645 C.3     1  UNL1        0.1036
      3 C         140.3609  141.5655  160.0466 C.3     1  UNL1        0.1470
      4 C         139.8020  142.9286  160.3287 C.3     1  UNL1        0.1035
      5 N         140.7280  144.0856  160.5609 N.3     1  UNL1       -0.2673
      6 C         142.2130  143.8793  160.5110 C.3     1  UNL1        0.1035
      7 C         142.7718  142.5163  160.2289 C.3     1  UNL1        0.1470
      8 C         143.3307  141.1532  159.9469 C.3     1  UNL1        0.1036
      9 O         141.2870  142.7224  160.2788 O.3     1  UNL1       -0.3530
     10 C         142.9636  138.6331  159.4326 C.3     1  UNL1        0.1202
     11 C         142.8451  137.5466  160.4599 C.3     1  UNL1        0.2226
     12 O         143.1230  137.8457  161.9034 O.3     1  UNL1       -0.4740
     13 C         139.7212  138.1515  164.8332 C.ar    1  UNL1        0.0686
     14 C         141.1191  138.4750  165.2706 C.ar    1  UNL1        0.0134
     15 C         142.2530  138.3730  164.2940 C.ar    1  UNL1        0.0376
     16 C         141.9891  137.9476  162.8800 C.ar    1  UNL1        0.1387
     17 C         140.5913  137.6241  162.4426 C.ar    1  UNL1        0.0376
     18 C         139.4572  137.7260  163.4192 C.ar    1  UNL1        0.0134
     19 N         137.4533  138.3553  166.7864 N.1     1  UNL1       -0.1908
     20 C         138.5872  138.2534  165.8098 C.1     1  UNL1        0.1004
     21 C         140.1692  145.4487  160.8430 C.3     1  UNL1        0.0913
     22 C         140.1915  145.9940  162.2402 C.3     1  UNL1        0.1087
     23 N         139.4602  145.2778  163.3366 N.3     1  UNL1       -0.1780
     24 H         138.7127  144.7444  162.8924 H       1  UNL1        0.1488
     25 S         140.1968  144.3272  164.2330 S.O2    1  UNL1        0.0603
     26 O         138.9475  143.5134  164.3968 O.2     1  UNL1       -0.1530
     27 O         141.4462  145.1410  164.0692 O.2     1  UNL1       -0.1530
     28 C         140.9336  143.3766  165.1295 C.ar    1  UNL1        0.1226
     29 C         142.4197  143.2208  164.9978 C.ar    1  UNL1        0.0199
     30 C         143.1564  142.2702  165.8942 C.ar    1  UNL1        0.0021
     31 C         142.4071  141.4754  166.9222 C.ar    1  UNL1        0.0104
     32 C         140.9211  141.6313  167.0539 C.ar    1  UNL1        0.0698
     33 C         140.1843  142.5818  166.1575 C.ar    1  UNL1        0.0302
     34 C         140.1717  140.8364  168.0819 C.1     1  UNL1        0.1005
     35 N         139.4224  140.0417  169.1100 N.1     1  UNL1       -0.1908
@<TRIPOS>BOND
     1    19    20    3
     2    20    13    1
     3    13    14   ar
     4    14    15   ar
     5    15    16   ar
     6    16    12    1
     7    12    11    1
     8    11    10    1
     9    10     1    1
    10     1     2    1
    11     2     3    1
    12     3     4    1
    13     4     5    1
    14     5    21    1
    15    21    22    1
    16    22    23    1
    17    23    25    1
    18    25    26    2
    19    25    27    2
    20    25    28    1
    21    28    29   ar
    22    29    30   ar
    23    30    31   ar
    24    31    32   ar
    25    32    34    1
    26    34    35    3
    27    32    33   ar
    28     5     6    1
    29     6     7    1
    30     7     8    1
    31     7     9    1
    32    16    17   ar
    33    17    18   ar
    34    18    13   ar
    35     8     1    1
    36     9     3    1
    37    33    28   ar
    38    23    24    1
@<TRIPOS>MOLECULE
*****
 35 38 0 0 0
SMALL
GASTEIGER

@<TRIPOS>ATOM
      1 N         138.1759  139.6401  161.9018 N.3     1  UNL1       -0.2653
      2 C         137.6335  140.5566  162.9580 C.3     1  UNL1        0.1036
      3 C         137.8597  142.0359  162.8556 C.3     1  UNL1        0.1470
      4 C         138.0858  143.5153  162.7532 C.3     1  UNL1        0.1035
      5 N         138.8544  144.0781  161.5945 N.3     1  UNL1       -0.2673
      6 C         139.3968  143.1615  160.5382 C.3     1  UNL1        0.1035
      7 C         139.1707  141.6822  160.6406 C.3     1  UNL1        0.1470
      8 C         138.9445  140.2029  160.7431 C.3     1  UNL1        0.1036
      9 O         138.6283  142.5987  161.6969 O.3     1  UNL1       -0.3530
     10 C         137.9498  138.1608  162.0042 C.3     1  UNL1        0.1202
     11 C         138.5901  137.3791  163.1127 C.3     1  UNL1        0.2226
     12 O         139.8123  137.9138  163.7986 O.3     1  UNL1       -0.4740
     13 C         139.4610  139.8194  167.8600 C.ar    1  UNL1        0.0686
     14 C         140.7529  139.9017  167.1022 C.ar    1  UNL1        0.0134
     15 C         140.8700  139.2665  165.7484 C.ar    1  UNL1        0.0376
     16 C         139.6952  138.5490  165.1524 C.ar    1  UNL1        0.1387
     17 C         138.4034  138.4667  165.9102 C.ar    1  UNL1        0.0376
     18 C         138.2862  139.1019  167.2641 C.ar    1  UNL1        0.0134
     19 N         139.2267  141.0897  170.5676 N.1     1  UNL1       -0.1908
     20 C         139.3439  140.4545  169.2138 C.1     1  UNL1        0.1004
     21 C         139.0806  145.5573  161.4921 C.3     1  UNL1        0.0913
     22 C         140.3505  146.1600  162.0157 C.3     1  UNL1        0.1087
     23 N         141.6742  145.5606  161.6436 N.3     1  UNL1       -0.1780
     24 H         142.3536  146.3214  161.6476 H       1  UNL1        0.1488
     25 S         142.2570  144.4554  162.4737 S.O2    1  UNL1        0.0603
     26 O         141.5579  144.9969  163.6853 O.2     1  UNL1       -0.1530
     27 O         142.9560  143.9140  161.2620 O.2     1  UNL1       -0.1530
     28 C         142.8398  143.3502  163.3037 C.ar    1  UNL1        0.1226
     29 C         143.4422  142.1492  162.6369 C.ar    1  UNL1        0.0199
     30 C         144.0249  141.0440  163.4669 C.ar    1  UNL1        0.0021
     31 C         144.0053  141.1399  164.9637 C.ar    1  UNL1        0.0104
     32 C         143.4029  142.3409  165.6305 C.ar    1  UNL1        0.0698
     33 C         142.8202  143.4461  164.8005 C.ar    1  UNL1        0.0302
     34 C         143.3833  142.4368  167.1273 C.1     1  UNL1        0.1005
     35 N         143.3638  142.5326  168.6241 N.1     1  UNL1       -0.1908
@<TRIPOS>BOND
     1    19    20    3
     2    20    13    1
     3    13    14   ar
     4    14    15   ar
     5    15    16   ar
     6    16    12    1
     7    12    11    1
     8    11    10    1
     9    10     1    1
    10     1     2    1
    11     2     3    1
    12     3     4    1
    13     4     5    1
    14     5    21    1
    15    21    22    1
    16    22    23    1
    17    23    25    1
    18    25    26    2
    19    25    27    2
    20    25    28    1
    21    28    29   ar
    22    29    30   ar
    23    30    31   ar
    24    31    32   ar
    25    32    34    1
    26    34    35    3
    27    32    33   ar
    28     5     6    1
    29     6     7    1
    30     7     8    1
    31     7     9    1
    32    16    17   ar
    33    17    18   ar
    34    18    13   ar
    35     8     1    1
    36     9     3    1
    37    33    28   ar
    38    23    24    1
