@<TRIPOS>MOLECULE
*****
 39 43 0 0 0
SMALL
GASTEIGER

@<TRIPOS>ATOM
      1 C         142.0581  138.0564  159.8355 C.2     1  UNL1        0.0389
      2 C         142.7929  137.6197  161.0682 C.2     1  UNL1        0.1000
      3 N         141.8496  137.7198  162.2301 N.2     1  UNL1       -0.2461
      4 C         140.5317  138.2183  161.7155 C.2     1  UNL1        0.0811
      5 C         139.2309  138.5097  162.4034 C.3     1  UNL1        0.1346
      6 C         138.0591  139.0091  161.6114 C.2     1  UNL1       -0.0009
      7 C         138.1880  139.2171  160.1315 C.2     1  UNL1       -0.0025
      8 C         139.4887  138.9257  159.4436 C.2     1  UNL1        0.0011
      9 C         140.6606  138.4263  160.2356 C.2     1  UNL1        0.0185
     10 C         143.6538  136.9129  156.3865 C.ar    1  UNL1        0.2209
     11 N         143.7492  138.2266  155.6688 N.ar    1  UNL1       -0.2111
     12 C         143.2809  139.4836  156.3401 C.ar    1  UNL1        0.1147
     13 C         142.7172  139.4268  157.7290 C.ar    1  UNL1        0.0945
     14 CL        142.2489  140.6839  158.4003 Cl      1  UNL1       -0.0790
     15 C         142.6218  138.1131  158.4467 C.ar    1  UNL1        0.0977
     16 N         143.0901  136.8561  157.7753 N.ar    1  UNL1       -0.2126
     17 N         144.1221  135.6559  155.7152 N.pl3   1  UNL1       -0.2776
     18 H         144.9581  135.6577  155.1951 H       1  UNL1        0.1552
     19 C         143.4563  133.3604  156.9122 C.ar    1  UNL1        0.2571
     20 N         142.4563  132.2752  156.6434 N.ar    1  UNL1       -0.1301
     21 N         141.6987  132.6403  155.4014 N.ar    1  UNL1       -0.2432
     22 C         140.6019  131.8357  154.7692 C.3     1  UNL1        0.1539
     23 C         142.2304  133.9510  154.9025 C.ar    1  UNL1        0.1146
     24 C         143.3168  134.3962  155.8361 C.ar    1  UNL1        0.1248
     25 C         145.5414  132.4028  158.1309 C.3     1  UNL1        0.2543
     26 O         144.4257  133.4025  158.0561 O.3     1  UNL1       -0.4543
     27 N         139.1021  138.3016  163.8833 N.am    1  UNL1       -0.2964
     28 C         139.0975  139.4819  164.8090 C.2     1  UNL1        0.2374
     29 O         139.2218  140.8703  164.2547 O.2     1  UNL1       -0.2736
     30 H         139.0205  137.3905  164.2471 H       1  UNL1        0.1501
     31 C         138.9687  139.2740  166.2889 C.3     1  UNL1        0.1349
     32 C         137.7624  138.5780  166.8463 C.3     1  UNL1        0.0272
     33 N         140.0461  139.7619  167.2115 N.3     1  UNL1       -0.2641
     34 C         139.6930  140.2493  168.5855 C.3     1  UNL1        0.0900
     35 C         140.7703  140.7372  169.5080 C.3     1  UNL1        0.0897
     36 N         142.2008  140.7379  169.0566 N.3     1  UNL1       -0.2691
     37 C         143.2782  141.2258  169.9792 C.3     1  UNL1        0.0897
     38 C         142.5539  140.2505  167.6827 C.3     1  UNL1        0.0897
     39 C         141.4765  139.7625  166.7601 C.3     1  UNL1        0.0900
@<TRIPOS>BOND
     1    25    26    1
     2    26    19    1
     3    19    20   ar
     4    20    21   ar
     5    21    22    1
     6    21    23   ar
     7    23    24   ar
     8    24    17    1
     9    17    10    1
    10    10    11   ar
    11    11    12   ar
    12    12    13   ar
    13    13    14    1
    14    13    15   ar
    15    15     1    1
    16     1     2    2
    17     2     3    1
    18     3     4    2
    19     4     5    1
    20     5    27    1
    21    27    28   am
    22    28    29    2
    23    28    31    1
    24    31    32    1
    25    31    33    1
    26    33    34    1
    27    34    35    1
    28    35    36    1
    29    36    37    1
    30    36    38    1
    31    38    39    1
    32     5     6    1
    33     6     7    2
    34     7     8    1
    35     8     9    2
    36    15    16   ar
    37    24    19   ar
    38    16    10   ar
    39     9     1    1
    40     9     4    1
    41    39    33    1
    42    17    18    1
    43    27    30    1
@<TRIPOS>MOLECULE
*****
 39 43 0 0 0
SMALL
GASTEIGER

@<TRIPOS>ATOM
      1 C         142.2704  138.3142  159.6084 C.2     1  UNL1        0.0389
      2 C         142.9633  137.7902  160.8312 C.2     1  UNL1        0.1000
      3 N         141.9865  137.8266  161.9689 N.2     1  UNL1       -0.2461
      4 C         140.6898  138.3731  161.4492 C.2     1  UNL1        0.0811
      5 C         139.3720  138.6352  162.1159 C.3     1  UNL1        0.1346
      6 C         138.2296  139.1987  161.3239 C.2     1  UNL1       -0.0009
      7 C         138.4051  139.5001  159.8650 C.2     1  UNL1       -0.0025
      8 C         139.7230  139.2380  159.1982 C.2     1  UNL1        0.0011
      9 C         140.8653  138.6745  159.9903 C.2     1  UNL1        0.0185
     10 C         143.6843  137.3794  156.0199 C.ar    1  UNL1        0.2209
     11 N         144.0878  138.7322  155.5129 N.ar    1  UNL1       -0.2111
     12 C         143.8856  139.9457  156.3712 C.ar    1  UNL1        0.1147
     13 C         143.2798  139.8064  157.7363 C.ar    1  UNL1        0.0945
     14 CL        143.0776  141.0199  158.5944 Cl      1  UNL1       -0.0790
     15 C         142.8762  138.4536  158.2432 C.ar    1  UNL1        0.0977
     16 N         143.0785  137.2401  157.3850 N.ar    1  UNL1       -0.2126
     17 N         143.8865  136.1659  155.1617 N.pl3   1  UNL1       -0.2776
     18 H         144.4666  136.2156  154.3678 H       1  UNL1        0.1552
     19 C         141.7679  134.5382  155.2477 C.ar    1  UNL1        0.2571
     20 N         141.5156  133.1520  155.7621 N.ar    1  UNL1       -0.1301
     21 N         142.7967  132.6338  156.3455 N.ar    1  UNL1       -0.2432
     22 C         142.9982  131.2862  156.9726 C.3     1  UNL1        0.1539
     23 C         143.8407  133.6996  156.1916 C.ar    1  UNL1        0.1146
     24 C         143.2050  134.8768  155.5131 C.ar    1  UNL1        0.1248
     25 C         140.0347  136.4687  155.3866 C.3     1  UNL1        0.2543
     26 O         140.7602  135.4295  154.5843 O.3     1  UNL1       -0.4543
     27 N         139.1965  138.3338  163.5749 N.am    1  UNL1       -0.2964
     28 C         139.2436  139.4451  164.5813 C.2     1  UNL1        0.2374
     29 O         139.4662  140.8578  164.1287 O.2     1  UNL1       -0.2736
     30 H         139.0504  137.4066  163.8719 H       1  UNL1        0.1501
     31 C         139.0682  139.1438  166.0401 C.3     1  UNL1        0.1349
     32 C         137.8665  138.3780  166.5086 C.3     1  UNL1        0.0272
     33 N         140.0945  139.6083  167.0307 N.3     1  UNL1       -0.2641
     34 C         139.6642  140.1077  168.3780 C.3     1  UNL1        0.0900
     35 C         140.6904  140.5722  169.3685 C.3     1  UNL1        0.0897
     36 N         142.1469  140.5372  169.0117 N.3     1  UNL1       -0.2691
     37 C         143.1732  141.0017  170.0022 C.3     1  UNL1        0.0897
     38 C         142.5772  140.0378  167.6643 C.3     1  UNL1        0.0897
     39 C         141.5510  139.5733  166.6738 C.3     1  UNL1        0.0900
@<TRIPOS>BOND
     1    25    26    1
     2    26    19    1
     3    19    20   ar
     4    20    21   ar
     5    21    22    1
     6    21    23   ar
     7    23    24   ar
     8    24    17    1
     9    17    10    1
    10    10    11   ar
    11    11    12   ar
    12    12    13   ar
    13    13    14    1
    14    13    15   ar
    15    15     1    1
    16     1     2    2
    17     2     3    1
    18     3     4    2
    19     4     5    1
    20     5    27    1
    21    27    28   am
    22    28    29    2
    23    28    31    1
    24    31    32    1
    25    31    33    1
    26    33    34    1
    27    34    35    1
    28    35    36    1
    29    36    37    1
    30    36    38    1
    31    38    39    1
    32     5     6    1
    33     6     7    2
    34     7     8    1
    35     8     9    2
    36    15    16   ar
    37    24    19   ar
    38    16    10   ar
    39     9     1    1
    40     9     4    1
    41    39    33    1
    42    17    18    1
    43    27    30    1
@<TRIPOS>MOLECULE
*****
 39 43 0 0 0
SMALL
GASTEIGER

@<TRIPOS>ATOM
      1 C         141.8569  138.4691  159.0445 C.2     1  UNL1        0.0389
      2 C         140.3775  138.5108  159.2888 C.2     1  UNL1        0.1000
      3 N         140.1556  138.6753  160.7631 N.2     1  UNL1       -0.2461
      4 C         141.4980  138.7353  161.4300 C.2     1  UNL1        0.0811
      5 C         141.8986  138.8895  162.8672 C.3     1  UNL1        0.1346
      6 C         143.3507  138.9162  163.2423 C.2     1  UNL1       -0.0009
      7 C         144.4021  138.7887  162.1801 C.2     1  UNL1       -0.0025
      8 C         144.0014  138.6345  160.7429 C.2     1  UNL1        0.0011
      9 C         142.5494  138.6078  160.3678 C.2     1  UNL1        0.0185
     10 C         143.7277  136.8247  155.9548 C.ar    1  UNL1        0.2209
     11 N         143.8652  138.0084  155.0439 N.ar    1  UNL1       -0.2111
     12 C         143.3333  139.3457  155.4665 C.ar    1  UNL1        0.1147
     13 C         142.6639  139.4993  156.8001 C.ar    1  UNL1        0.0945
     14 CL        142.1320  140.8367  157.2226 Cl      1  UNL1       -0.0790
     15 C         142.5263  138.3155  157.7110 C.ar    1  UNL1        0.0977
     16 N         143.0582  136.9782  157.2883 N.ar    1  UNL1       -0.2126
     17 N         144.2596  135.4873  155.5321 N.pl3   1  UNL1       -0.2776
     18 H         145.1569  135.4183  155.1330 H       1  UNL1        0.1552
     19 C         143.5183  133.2905  156.8623 C.ar    1  UNL1        0.2571
     20 N         142.5005  132.2106  156.6431 N.ar    1  UNL1       -0.1301
     21 N         141.7776  132.5080  155.3630 N.ar    1  UNL1       -0.2432
     22 C         140.6769  131.6860  154.7606 C.3     1  UNL1        0.1539
     23 C         142.3485  133.7716  154.7910 C.ar    1  UNL1        0.1146
     24 C         143.4243  134.2553  155.7176 C.ar    1  UNL1        0.1248
     25 C         145.5369  132.3561  158.2048 C.3     1  UNL1        0.2543
     26 O         144.4640  133.3884  158.0226 O.3     1  UNL1       -0.4543
     27 N         140.8471  139.0170  163.9294 N.am    1  UNL1       -0.2964
     28 C         140.4571  140.3725  164.4397 C.2     1  UNL1        0.2374
     29 O         141.1185  141.6005  163.8878 O.2     1  UNL1       -0.2736
     30 H         140.4130  138.2110  164.2916 H       1  UNL1        0.1501
     31 C         139.4056  140.5000  165.5018 C.3     1  UNL1        0.1349
     32 C         137.9632  140.2699  165.1607 C.3     1  UNL1        0.0272
     33 N         139.7966  140.8577  166.9052 N.3     1  UNL1       -0.2641
     34 C         139.4091  139.9609  168.0434 C.3     1  UNL1        0.0900
     35 C         139.8001  140.3185  169.4467 C.3     1  UNL1        0.0897
     36 N         140.5785  141.5730  169.7117 N.3     1  UNL1       -0.2691
     37 C         140.9695  141.9306  171.1150 C.3     1  UNL1        0.0897
     38 C         140.9660  142.4698  168.5735 C.3     1  UNL1        0.0897
     39 C         140.5751  142.1122  167.1702 C.3     1  UNL1        0.0900
@<TRIPOS>BOND
     1    25    26    1
     2    26    19    1
     3    19    20   ar
     4    20    21   ar
     5    21    22    1
     6    21    23   ar
     7    23    24   ar
     8    24    17    1
     9    17    10    1
    10    10    11   ar
    11    11    12   ar
    12    12    13   ar
    13    13    14    1
    14    13    15   ar
    15    15     1    1
    16     1     2    2
    17     2     3    1
    18     3     4    2
    19     4     5    1
    20     5    27    1
    21    27    28   am
    22    28    29    2
    23    28    31    1
    24    31    32    1
    25    31    33    1
    26    33    34    1
    27    34    35    1
    28    35    36    1
    29    36    37    1
    30    36    38    1
    31    38    39    1
    32     5     6    1
    33     6     7    2
    34     7     8    1
    35     8     9    2
    36    15    16   ar
    37    24    19   ar
    38    16    10   ar
    39     9     1    1
    40     9     4    1
    41    39    33    1
    42    17    18    1
    43    27    30    1
@<TRIPOS>MOLECULE
*****
 39 43 0 0 0
SMALL
GASTEIGER

@<TRIPOS>ATOM
      1 C         142.7054  139.3060  161.8958 C.2     1  UNL1        0.0389
      2 C         142.8398  137.8223  161.7210 C.2     1  UNL1        0.1000
      3 N         143.0258  137.5428  160.2591 N.2     1  UNL1       -0.2461
      4 C         143.0062  138.8538  159.5304 C.2     1  UNL1        0.0811
      5 C         143.1432  139.1961  158.0764 C.3     1  UNL1        0.1346
      6 C         143.0821  140.6280  157.6339 C.2     1  UNL1       -0.0009
      7 C         142.8842  141.7177  158.6455 C.2     1  UNL1       -0.0025
      8 C         142.7472  141.3755  160.0995 C.2     1  UNL1        0.0011
      9 C         142.8082  139.9435  160.5419 C.2     1  UNL1        0.0185
     10 C         141.0578  141.5533  164.7216 C.ar    1  UNL1        0.2209
     11 N         142.0998  141.4657  165.7970 N.ar    1  UNL1       -0.2111
     12 C         143.3437  140.6582  165.5720 C.ar    1  UNL1        0.1147
     13 C         143.5455  139.9383  164.2716 C.ar    1  UNL1        0.0945
     14 CL        144.7895  139.1308  164.0467 Cl      1  UNL1       -0.0790
     15 C         142.5035  140.0259  163.1962 C.ar    1  UNL1        0.0977
     16 N         141.2597  140.8335  163.4212 N.ar    1  UNL1       -0.2126
     17 N         139.8139  142.3609  164.9467 N.pl3   1  UNL1       -0.2776
     18 H         139.3076  142.2616  165.7851 H       1  UNL1        0.1552
     19 C         138.0949  143.1815  163.0713 C.ar    1  UNL1        0.2571
     20 N         138.0156  144.3612  162.1484 N.ar    1  UNL1       -0.1301
     21 N         139.2132  145.2284  162.4008 N.ar    1  UNL1       -0.2432
     22 C         139.5349  146.5138  161.6976 C.3     1  UNL1        0.1539
     23 C         140.0326  144.5847  163.4797 C.ar    1  UNL1        0.1146
     24 C         139.3415  143.3196  163.8942 C.ar    1  UNL1        0.1248
     25 C         137.5712  140.6369  163.0998 C.3     1  UNL1        0.2543
     26 O         137.1019  142.0605  163.1566 O.3     1  UNL1       -0.4543
     27 N         143.3412  138.1063  157.0648 N.am    1  UNL1       -0.2964
     28 C         142.1668  137.3058  156.5852 C.2     1  UNL1        0.2374
     29 O         140.7944  137.5951  157.1172 O.2     1  UNL1       -0.2736
     30 H         144.2419  137.9164  156.7157 H       1  UNL1        0.1501
     31 C         142.3647  136.2160  155.5737 C.3     1  UNL1        0.1349
     32 C         142.3121  136.5339  154.1087 C.3     1  UNL1        0.0272
     33 N         142.6154  134.8083  156.0271 N.3     1  UNL1       -0.2641
     34 C         143.6380  134.5334  157.0894 C.3     1  UNL1        0.0900
     35 C         143.8887  133.1258  157.5429 C.3     1  UNL1        0.0897
     36 N         143.1167  131.9930  156.9340 N.3     1  UNL1       -0.2691
     37 C         143.3673  130.5853  157.3874 C.3     1  UNL1        0.0897
     38 C         142.0940  132.2679  155.8716 C.3     1  UNL1        0.0897
     39 C         141.8434  133.6755  155.4182 C.3     1  UNL1        0.0900
@<TRIPOS>BOND
     1    25    26    1
     2    26    19    1
     3    19    20   ar
     4    20    21   ar
     5    21    22    1
     6    21    23   ar
     7    23    24   ar
     8    24    17    1
     9    17    10    1
    10    10    11   ar
    11    11    12   ar
    12    12    13   ar
    13    13    14    1
    14    13    15   ar
    15    15     1    1
    16     1     2    2
    17     2     3    1
    18     3     4    2
    19     4     5    1
    20     5    27    1
    21    27    28   am
    22    28    29    2
    23    28    31    1
    24    31    32    1
    25    31    33    1
    26    33    34    1
    27    34    35    1
    28    35    36    1
    29    36    37    1
    30    36    38    1
    31    38    39    1
    32     5     6    1
    33     6     7    2
    34     7     8    1
    35     8     9    2
    36    15    16   ar
    37    24    19   ar
    38    16    10   ar
    39     9     1    1
    40     9     4    1
    41    39    33    1
    42    17    18    1
    43    27    30    1
@<TRIPOS>MOLECULE
*****
 39 43 0 0 0
SMALL
GASTEIGER

@<TRIPOS>ATOM
      1 C         142.5629  138.0503  159.8891 C.2     1  UNL1        0.0389
      2 C         143.7569  137.9786  160.7943 C.2     1  UNL1        0.1000
      3 N         143.2667  138.0110  162.2116 N.2     1  UNL1       -0.2461
      4 C         141.7697  138.1026  162.1822 C.2     1  UNL1        0.0811
      5 C         140.7465  138.1671  163.2772 C.3     1  UNL1        0.1346
      6 C         139.2884  138.2559  162.9367 C.2     1  UNL1       -0.0009
      7 C         138.8535  138.2801  161.5014 C.2     1  UNL1       -0.0025
      8 C         139.8767  138.2156  160.4065 C.2     1  UNL1        0.0011
      9 C         141.3348  138.1269  160.7469 C.2     1  UNL1        0.0185
     10 C         143.1155  136.8325  156.1526 C.ar    1  UNL1        0.2209
     11 N         142.6501  138.0374  155.3899 N.ar    1  UNL1       -0.2111
     12 C         142.1557  139.2466  156.1271 C.ar    1  UNL1        0.1147
     13 C         142.1266  139.2509  157.6268 C.ar    1  UNL1        0.0945
     14 CL        141.6322  140.4601  158.3638 Cl      1  UNL1       -0.0790
     15 C         142.5920  138.0460  158.3894 C.ar    1  UNL1        0.0977
     16 N         143.0864  136.8368  157.6523 N.ar    1  UNL1       -0.2126
     17 N         143.6099  135.6233  155.4154 N.pl3   1  UNL1       -0.2776
     18 H         144.3755  135.7001  154.8013 H       1  UNL1        0.1552
     19 C         143.1785  133.3480  156.7504 C.ar    1  UNL1        0.2571
     20 N         142.2965  132.1514  156.5498 N.ar    1  UNL1       -0.1301
     21 N         141.5107  132.3610  155.2895 N.ar    1  UNL1       -0.2432
     22 C         140.5050  131.4112  154.7093 C.3     1  UNL1        0.1539
     23 C         141.9070  133.6869  154.7111 C.ar    1  UNL1        0.1146
     24 C         142.9378  134.2971  155.6140 C.ar    1  UNL1        0.1248
     25 C         145.2744  132.6069  158.0952 C.3     1  UNL1        0.2543
     26 O         144.1336  133.5586  157.8877 O.3     1  UNL1       -0.4543
     27 N         141.1815  138.1429  164.7126 N.am    1  UNL1       -0.2964
     28 C         141.9463  139.2998  165.2841 C.2     1  UNL1        0.2374
     29 O         142.2762  140.4809  164.4202 O.2     1  UNL1       -0.2736
     30 H         140.9650  137.3677  165.2795 H       1  UNL1        0.1501
     31 C         142.3813  139.2756  166.7194 C.3     1  UNL1        0.1349
     32 C         143.4722  138.3436  167.1569 C.3     1  UNL1        0.0272
     33 N         141.7254  140.1834  167.7173 N.3     1  UNL1       -0.2641
     34 C         141.7757  139.8518  169.1793 C.3     1  UNL1        0.0900
     35 C         141.1199  140.7595  170.1772 C.3     1  UNL1        0.0897
     36 N         140.4137  141.9988  169.7131 N.3     1  UNL1       -0.2691
     37 C         139.7577  142.9066  170.7110 C.3     1  UNL1        0.0897
     38 C         140.3633  142.3303  168.2510 C.3     1  UNL1        0.0897
     39 C         141.0192  141.4226  167.2532 C.3     1  UNL1        0.0900
@<TRIPOS>BOND
     1    25    26    1
     2    26    19    1
     3    19    20   ar
     4    20    21   ar
     5    21    22    1
     6    21    23   ar
     7    23    24   ar
     8    24    17    1
     9    17    10    1
    10    10    11   ar
    11    11    12   ar
    12    12    13   ar
    13    13    14    1
    14    13    15   ar
    15    15     1    1
    16     1     2    2
    17     2     3    1
    18     3     4    2
    19     4     5    1
    20     5    27    1
    21    27    28   am
    22    28    29    2
    23    28    31    1
    24    31    32    1
    25    31    33    1
    26    33    34    1
    27    34    35    1
    28    35    36    1
    29    36    37    1
    30    36    38    1
    31    38    39    1
    32     5     6    1
    33     6     7    2
    34     7     8    1
    35     8     9    2
    36    15    16   ar
    37    24    19   ar
    38    16    10   ar
    39     9     1    1
    40     9     4    1
    41    39    33    1
    42    17    18    1
    43    27    30    1
@<TRIPOS>MOLECULE
*****
 39 43 0 0 0
SMALL
GASTEIGER

@<TRIPOS>ATOM
      1 C         142.3099  141.9939  161.3537 C.2     1  UNL1        0.0389
      2 C         142.1423  141.5234  159.9393 C.2     1  UNL1        0.1000
      3 N         141.3481  142.5575  159.1979 N.2     1  UNL1       -0.2461
      4 C         141.0249  143.6672  160.1541 C.2     1  UNL1        0.0811
      5 C         140.2661  144.9498  159.9836 C.3     1  UNL1        0.1346
      6 C         140.1017  145.8841  161.1455 C.2     1  UNL1       -0.0009
      7 C         140.6962  145.5357  162.4779 C.2     1  UNL1       -0.0025
      8 C         141.4550  144.2531  162.6483 C.2     1  UNL1        0.0011
      9 C         141.6193  143.3188  161.4864 C.2     1  UNL1        0.0185
     10 C         143.0282  139.5964  164.4336 C.ar    1  UNL1        0.2209
     11 N         144.5000  139.8134  164.6247 N.ar    1  UNL1       -0.2111
     12 C         145.2419  140.7572  163.7253 C.ar    1  UNL1        0.1147
     13 C         144.5118  141.4840  162.6350 C.ar    1  UNL1        0.0945
     14 CL        145.2537  142.4279  161.7357 Cl      1  UNL1       -0.0790
     15 C         143.0400  141.2671  162.4440 C.ar    1  UNL1        0.0977
     16 N         142.2981  140.3232  163.3434 N.ar    1  UNL1       -0.2126
     17 N         142.2864  138.6525  165.3330 N.pl3   1  UNL1       -0.2776
     18 H         142.5230  137.6969  165.3463 H       1  UNL1        0.1552
     19 C         139.7140  139.0677  165.9295 C.ar    1  UNL1        0.2571
     20 N         138.9796  139.7066  167.0707 N.ar    1  UNL1       -0.1301
     21 N         139.9957  140.1982  168.0586 N.ar    1  UNL1       -0.2432
     22 C         139.7011  140.9014  169.3504 C.3     1  UNL1        0.1539
     23 C         141.3580  139.8632  167.5279 C.ar    1  UNL1        0.1146
     24 C         141.1841  139.1645  166.2120 C.ar    1  UNL1        0.1248
     25 C         138.8465  139.2660  163.4886 C.3     1  UNL1        0.2543
     26 O         139.0883  138.4419  164.7183 O.3     1  UNL1       -0.4543
     27 N         139.6716  145.2981  158.6512 N.am    1  UNL1       -0.2964
     28 C         140.5318  145.9022  157.5810 C.2     1  UNL1        0.2374
     29 O         141.9864  146.1580  157.8433 O.2     1  UNL1       -0.2736
     30 H         138.7169  145.1303  158.4791 H       1  UNL1        0.1501
     31 C         139.9374  146.2506  156.2486 C.3     1  UNL1        0.1349
     32 C         139.7288  145.1811  155.2177 C.3     1  UNL1        0.0272
     33 N         139.5515  147.6684  155.9471 N.3     1  UNL1       -0.2641
     34 C         139.9575  148.2958  154.6465 C.3     1  UNL1        0.0900
     35 C         139.5716  149.7135  154.3449 C.3     1  UNL1        0.0897
     36 N         138.7798  150.5040  155.3440 N.3     1  UNL1       -0.2691
     37 C         138.3939  151.9218  155.0425 C.3     1  UNL1        0.0897
     38 C         138.3738  149.8766  156.6446 C.3     1  UNL1        0.0897
     39 C         138.7596  148.4588  156.9462 C.3     1  UNL1        0.0900
@<TRIPOS>BOND
     1    25    26    1
     2    26    19    1
     3    19    20   ar
     4    20    21   ar
     5    21    22    1
     6    21    23   ar
     7    23    24   ar
     8    24    17    1
     9    17    10    1
    10    10    11   ar
    11    11    12   ar
    12    12    13   ar
    13    13    14    1
    14    13    15   ar
    15    15     1    1
    16     1     2    2
    17     2     3    1
    18     3     4    2
    19     4     5    1
    20     5    27    1
    21    27    28   am
    22    28    29    2
    23    28    31    1
    24    31    32    1
    25    31    33    1
    26    33    34    1
    27    34    35    1
    28    35    36    1
    29    36    37    1
    30    36    38    1
    31    38    39    1
    32     5     6    1
    33     6     7    2
    34     7     8    1
    35     8     9    2
    36    15    16   ar
    37    24    19   ar
    38    16    10   ar
    39     9     1    1
    40     9     4    1
    41    39    33    1
    42    17    18    1
    43    27    30    1
@<TRIPOS>MOLECULE
*****
 39 43 0 0 0
SMALL
GASTEIGER

@<TRIPOS>ATOM
      1 C         140.7801  145.1141  157.8762 C.2     1  UNL1        0.0389
      2 C         141.5148  145.7367  159.0263 C.2     1  UNL1        0.1000
      3 N         141.1108  145.0166  160.2786 N.2     1  UNL1       -0.2461
      4 C         140.1265  143.9490  159.9024 C.2     1  UNL1        0.0811
      5 C         139.3899  142.9298  160.7201 C.3     1  UNL1        0.1346
      6 C         138.4490  141.9708  160.0531 C.2     1  UNL1       -0.0009
      7 C         138.2446  142.0311  158.5683 C.2     1  UNL1       -0.0025
      8 C         138.9812  143.0503  157.7506 C.2     1  UNL1        0.0011
      9 C         139.9222  144.0093  158.4177 C.2     1  UNL1        0.0185
     10 C         140.1724  147.0823  154.4840 C.ar    1  UNL1        0.2209
     11 N         141.0948  146.3449  153.5592 N.ar    1  UNL1       -0.2111
     12 C         141.9123  145.1971  154.0734 C.ar    1  UNL1        0.1147
     13 C         141.8074  144.7869  155.5123 C.ar    1  UNL1        0.0945
     14 CL        142.6249  143.6391  156.0265 Cl      1  UNL1       -0.0790
     15 C         140.8850  145.5243  156.4372 C.ar    1  UNL1        0.0977
     16 N         140.0675  146.6721  155.9230 N.ar    1  UNL1       -0.2126
     17 N         139.3550  148.2301  153.9698 N.pl3   1  UNL1       -0.2776
     18 H         138.5232  148.0580  153.4720 H       1  UNL1        0.1552
     19 C         139.1754  150.6138  155.1659 C.ar    1  UNL1        0.2571
     20 N         139.9445  151.8994  155.0896 N.ar    1  UNL1       -0.1301
     21 N         141.0490  151.7202  154.0907 N.ar    1  UNL1       -0.2432
     22 C         142.0620  152.7556  153.7012 C.3     1  UNL1        0.1539
     23 C         140.9626  150.3239  153.5496 C.ar    1  UNL1        0.1146
     24 C         139.8047  149.6400  154.2141 C.ar    1  UNL1        0.1248
     25 C         138.1612  149.6371  157.3493 C.3     1  UNL1        0.2543
     26 O         137.9860  150.3485  156.0405 O.3     1  UNL1       -0.4543
     27 N         139.5944  142.8695  162.2050 N.am    1  UNL1       -0.2964
     28 C         138.9788  143.9127  163.0897 C.2     1  UNL1        0.2374
     29 O         138.1588  145.0162  162.4896 O.2     1  UNL1       -0.2736
     30 H         140.1325  142.1453  162.5988 H       1  UNL1        0.1501
     31 C         139.1831  143.8525  164.5744 C.3     1  UNL1        0.1349
     32 C         138.5861  144.9082  165.4571 C.3     1  UNL1        0.0272
     33 N         139.9846  142.7366  165.1766 N.3     1  UNL1       -0.2641
     34 C         139.3093  141.4571  165.5725 C.3     1  UNL1        0.0900
     35 C         140.1106  140.3413  166.1747 C.3     1  UNL1        0.0897
     36 N         141.5873  140.5049  166.3808 N.3     1  UNL1       -0.2691
     37 C         142.3888  139.3890  166.9830 C.3     1  UNL1        0.0897
     38 C         142.2627  141.7844  165.9849 C.3     1  UNL1        0.0897
     39 C         141.4613  142.9003  165.3828 C.3     1  UNL1        0.0900
@<TRIPOS>BOND
     1    25    26    1
     2    26    19    1
     3    19    20   ar
     4    20    21   ar
     5    21    22    1
     6    21    23   ar
     7    23    24   ar
     8    24    17    1
     9    17    10    1
    10    10    11   ar
    11    11    12   ar
    12    12    13   ar
    13    13    14    1
    14    13    15   ar
    15    15     1    1
    16     1     2    2
    17     2     3    1
    18     3     4    2
    19     4     5    1
    20     5    27    1
    21    27    28   am
    22    28    29    2
    23    28    31    1
    24    31    32    1
    25    31    33    1
    26    33    34    1
    27    34    35    1
    28    35    36    1
    29    36    37    1
    30    36    38    1
    31    38    39    1
    32     5     6    1
    33     6     7    2
    34     7     8    1
    35     8     9    2
    36    15    16   ar
    37    24    19   ar
    38    16    10   ar
    39     9     1    1
    40     9     4    1
    41    39    33    1
    42    17    18    1
    43    27    30    1
@<TRIPOS>MOLECULE
*****
 39 43 0 0 0
SMALL
GASTEIGER

@<TRIPOS>ATOM
      1 C         142.7393  139.5278  161.5069 C.2     1  UNL1        0.0389
      2 C         142.8244  138.0304  161.5345 C.2     1  UNL1        0.1000
      3 N         142.9238  137.5455  160.1186 N.2     1  UNL1       -0.2461
      4 C         142.9001  138.7433  159.2158 C.2     1  UNL1        0.0811
      5 C         142.9677  138.8766  157.7232 C.3     1  UNL1        0.1346
      6 C         142.9213  140.2349  157.0887 C.2     1  UNL1       -0.0009
      7 C         142.8072  141.4600  157.9467 C.2     1  UNL1       -0.0025
      8 C         142.7396  141.3267  159.4393 C.2     1  UNL1        0.0011
      9 C         142.7861  139.9683  160.0738 C.2     1  UNL1        0.0185
     10 C         141.2004  141.4718  164.6056 C.ar    1  UNL1        0.2209
     11 N         142.4025  142.2248  165.0934 N.ar    1  UNL1       -0.2111
     12 C         143.7169  142.0787  164.3856 C.ar    1  UNL1        0.1147
     13 C         143.8291  141.1797  163.1901 C.ar    1  UNL1        0.0945
     14 CL        145.1436  141.0337  162.4823 Cl      1  UNL1       -0.0790
     15 C         142.6270  140.4268  162.7023 C.ar    1  UNL1        0.0977
     16 N         141.3126  140.5728  163.4102 N.ar    1  UNL1       -0.2126
     17 N         139.8859  141.6179  165.3135 N.pl3   1  UNL1       -0.2776
     18 H         139.1633  142.1475  164.9054 H       1  UNL1        0.1552
     19 C         138.8608  139.7204  166.8927 C.ar    1  UNL1        0.2571
     20 N         138.9199  139.4156  168.3602 N.ar    1  UNL1       -0.1301
     21 N         139.7682  140.4637  169.0174 N.ar    1  UNL1       -0.2432
     22 C         140.0940  140.5449  170.4793 C.3     1  UNL1        0.1539
     23 C         140.2333  141.4162  167.9562 C.ar    1  UNL1        0.1146
     24 C         139.6725  140.9569  166.6429 C.ar    1  UNL1        0.1248
     25 C         138.8273  137.8503  165.0894 C.3     1  UNL1        0.2543
     26 O         138.1201  138.9278  165.8567 O.3     1  UNL1       -0.4543
     27 N         143.0818  137.6515  156.8652 N.am    1  UNL1       -0.2964
     28 C         141.8641  136.8269  156.5695 C.2     1  UNL1        0.2374
     29 O         140.5324  137.2275  157.1319 O.2     1  UNL1       -0.2736
     30 H         143.9558  137.3886  156.4962 H       1  UNL1        0.1501
     31 C         141.9781  135.6018  155.7116 C.3     1  UNL1        0.1349
     32 C         141.4737  135.6258  154.2992 C.3     1  UNL1        0.0272
     33 N         142.5966  134.3527  156.2660 N.3     1  UNL1       -0.2641
     34 C         142.0668  133.0095  155.8599 C.3     1  UNL1        0.0900
     35 C         142.6852  131.7604  156.4143 C.3     1  UNL1        0.0897
     36 N         143.8334  131.8547  157.3748 N.3     1  UNL1       -0.2691
     37 C         144.4519  130.6056  157.9293 C.3     1  UNL1        0.0897
     38 C         144.3632  133.1979  157.7810 C.3     1  UNL1        0.0897
     39 C         143.7448  134.4470  157.2266 C.3     1  UNL1        0.0900
@<TRIPOS>BOND
     1    25    26    1
     2    26    19    1
     3    19    20   ar
     4    20    21   ar
     5    21    22    1
     6    21    23   ar
     7    23    24   ar
     8    24    17    1
     9    17    10    1
    10    10    11   ar
    11    11    12   ar
    12    12    13   ar
    13    13    14    1
    14    13    15   ar
    15    15     1    1
    16     1     2    2
    17     2     3    1
    18     3     4    2
    19     4     5    1
    20     5    27    1
    21    27    28   am
    22    28    29    2
    23    28    31    1
    24    31    32    1
    25    31    33    1
    26    33    34    1
    27    34    35    1
    28    35    36    1
    29    36    37    1
    30    36    38    1
    31    38    39    1
    32     5     6    1
    33     6     7    2
    34     7     8    1
    35     8     9    2
    36    15    16   ar
    37    24    19   ar
    38    16    10   ar
    39     9     1    1
    40     9     4    1
    41    39    33    1
    42    17    18    1
    43    27    30    1
@<TRIPOS>MOLECULE
*****
 39 43 0 0 0
SMALL
GASTEIGER

@<TRIPOS>ATOM
      1 C         141.5359  138.8979  162.2685 C.2     1  UNL1        0.0389
      2 C         142.7250  138.0378  161.9582 C.2     1  UNL1        0.1000
      3 N         142.6808  137.6947  160.4987 N.2     1  UNL1       -0.2461
      4 C         141.4643  138.3428  159.9069 C.2     1  UNL1        0.0811
      5 C         140.9095  138.3519  158.5133 C.3     1  UNL1        0.1346
      6 C         139.6472  139.1046  158.2135 C.2     1  UNL1       -0.0009
      7 C         138.9396  139.8481  159.3072 C.2     1  UNL1       -0.0025
      8 C         139.4944  139.8391  160.7008 C.2     1  UNL1        0.0011
      9 C         140.7567  139.0864  161.0007 C.2     1  UNL1        0.0185
     10 C         140.6440  141.5194  165.1114 C.ar    1  UNL1        0.2209
     11 N         140.4896  140.6119  166.2956 N.ar    1  UNL1       -0.2111
     12 C         140.6839  139.1329  166.1375 C.ar    1  UNL1        0.1147
     13 C         141.0327  138.5616  164.7951 C.ar    1  UNL1        0.0945
     14 CL        141.2271  137.0827  164.6370 Cl      1  UNL1       -0.0790
     15 C         141.1871  139.4692  163.6108 C.ar    1  UNL1        0.0977
     16 N         140.9927  140.9481  163.7690 N.ar    1  UNL1       -0.2126
     17 N         140.4496  142.9983  165.2695 N.pl3   1  UNL1       -0.2776
     18 H         140.7516  143.4494  166.0908 H       1  UNL1        0.1552
     19 C         138.4093  143.5780  163.6427 C.ar    1  UNL1        0.2571
     20 N         138.1693  144.5895  162.5614 N.ar    1  UNL1       -0.1301
     21 N         139.4067  145.4266  162.4268 N.ar    1  UNL1       -0.2432
     22 C         139.6045  146.5590  161.4632 C.3     1  UNL1        0.1539
     23 C         140.4115  144.9324  163.4248 C.ar    1  UNL1        0.1146
     24 C         139.7952  143.7899  164.1764 C.ar    1  UNL1        0.1248
     25 C         137.3494  141.2185  163.3990 C.3     1  UNL1        0.2543
     26 O         137.4348  142.5373  164.1086 O.3     1  UNL1       -0.4543
     27 N         141.6171  137.6083  157.4195 N.am    1  UNL1       -0.2964
     28 C         142.9680  138.0651  156.9543 C.2     1  UNL1        0.2374
     29 O         143.6113  139.2655  157.5830 O.2     1  UNL1       -0.2736
     30 H         141.1949  136.8204  157.0069 H       1  UNL1        0.1501
     31 C         143.6757  137.3215  155.8606 C.3     1  UNL1        0.1349
     32 C         144.6869  138.0272  155.0065 C.3     1  UNL1        0.0272
     33 N         143.3721  135.8722  155.6209 N.3     1  UNL1       -0.2641
     34 C         142.7675  135.4379  154.3186 C.3     1  UNL1        0.0900
     35 C         142.4640  133.9887  154.0789 C.3     1  UNL1        0.0897
     36 N         142.7650  132.9737  155.1414 N.3     1  UNL1       -0.2691
     37 C         142.4614  131.5244  154.9017 C.3     1  UNL1        0.0897
     38 C         143.3695  133.4079  156.4437 C.3     1  UNL1        0.0897
     39 C         143.6731  134.8571  156.6835 C.3     1  UNL1        0.0900
@<TRIPOS>BOND
     1    25    26    1
     2    26    19    1
     3    19    20   ar
     4    20    21   ar
     5    21    22    1
     6    21    23   ar
     7    23    24   ar
     8    24    17    1
     9    17    10    1
    10    10    11   ar
    11    11    12   ar
    12    12    13   ar
    13    13    14    1
    14    13    15   ar
    15    15     1    1
    16     1     2    2
    17     2     3    1
    18     3     4    2
    19     4     5    1
    20     5    27    1
    21    27    28   am
    22    28    29    2
    23    28    31    1
    24    31    32    1
    25    31    33    1
    26    33    34    1
    27    34    35    1
    28    35    36    1
    29    36    37    1
    30    36    38    1
    31    38    39    1
    32     5     6    1
    33     6     7    2
    34     7     8    1
    35     8     9    2
    36    15    16   ar
    37    24    19   ar
    38    16    10   ar
    39     9     1    1
    40     9     4    1
    41    39    33    1
    42    17    18    1
    43    27    30    1
