@<TRIPOS>MOLECULE
*****
 33 37 0 0 0
SMALL
GASTEIGER

@<TRIPOS>ATOM
      1 C         140.1621  141.2197  165.7686 C.ar    1  UNL1        0.0906
      2 C         140.6325  141.9563  166.9877 C.ar    1  UNL1        0.1496
      3 O         140.1769  143.3808  166.8731 O.2     1  UNL1       -0.4534
      4 C         139.4250  143.5247  165.5832 C.ar    1  UNL1        0.1454
      5 C         138.7475  144.6994  164.9420 C.ar    1  UNL1        0.0406
      6 C         138.0609  144.5384  163.6182 C.ar    1  UNL1        0.0395
      7 C         138.0517  143.2028  162.9356 C.ar    1  UNL1        0.1311
      8 O         137.3650  143.0418  161.6117 O.3     1  UNL1       -0.5058
      9 C         138.7292  142.0281  163.5767 C.ar    1  UNL1        0.0308
     10 C         139.4158  142.1891  164.9006 C.ar    1  UNL1        0.0421
     11 H         136.9418  143.7756  161.2112 H       1  UNL1        0.2922
     12 C         141.4201  141.3710  168.1223 C.ar    1  UNL1        0.0349
     13 C         140.9858  140.0793  168.7490 C.ar    1  UNL1        0.0061
     14 C         141.7734  139.4940  169.8835 C.ar    1  UNL1        0.0367
     15 C         142.9953  140.2005  170.3913 C.ar    1  UNL1        0.1337
     16 O         143.7830  139.6152  171.5258 O.3     1  UNL1       -0.5055
     17 C         143.4296  141.4922  169.7645 C.ar    1  UNL1        0.0367
     18 C         142.6420  142.0774  168.6300 C.ar    1  UNL1        0.0061
     19 H         143.5117  138.8083  171.9173 H       1  UNL1        0.2922
     20 C         141.9300  137.8774  164.5629 C.3     1  UNL1        0.1109
     21 N         141.6954  139.3285  164.8616 N.am    1  UNL1       -0.2991
     22 C         140.3967  139.7686  165.4699 C.2     1  UNL1        0.2490
     23 O         139.3329  138.7576  165.7795 O.2     1  UNL1       -0.2700
     24 H         142.3937  139.9921  164.6584 H       1  UNL1        0.1498
     25 C         138.7200  140.6925  162.8941 C.3     1  UNL1        0.1023
     26 N         139.9231  140.2358  162.1234 N.3     1  UNL1       -0.2686
     27 C         141.2205  140.8657  161.7112 C.3     1  UNL1        0.0761
     28 C         141.6247  139.5899  161.0335 C.3     1  UNL1        0.0592
     29 C         141.8207  138.2314  160.4287 C.3     1  UNL1        0.0372
     30 C         143.1602  138.2135  159.7537 C.3     1  UNL1        0.1423
     31 O         143.7919  139.5609  159.9415 O.3     1  UNL1       -0.3537
     32 C         142.8429  140.4116  160.7324 C.3     1  UNL1        0.1448
     33 C         140.3272  138.9601  161.4457 C.3     1  UNL1        0.0761
@<TRIPOS>BOND
     1    20    21    1
     2    21    22   am
     3    22    23    2
     4    22     1    1
     5     1     2   ar
     6     2    12    1
     7    12    13   ar
     8    13    14   ar
     9    14    15   ar
    10    15    16    1
    11    15    17   ar
    12    17    18   ar
    13     2     3   ar
    14     3     4   ar
    15     4     5   ar
    16     5     6   ar
    17     6     7   ar
    18     7     8    1
    19     7     9   ar
    20     9    25    1
    21    25    26    1
    22    26    27    1
    23    27    28    1
    24    28    29    1
    25    29    30    1
    26    30    31    1
    27    31    32    1
    28    28    33    1
    29     9    10   ar
    30    10     1   ar
    31    18    12   ar
    32    10     4   ar
    33    33    26    1
    34    32    28    1
    35    21    24    1
    36    16    19    1
    37     8    11    1
@<TRIPOS>MOLECULE
*****
 33 37 0 0 0
SMALL
GASTEIGER

@<TRIPOS>ATOM
      1 C         142.1663  142.8729  165.3204 C.ar    1  UNL1        0.0906
      2 C         141.4296  142.5405  166.5840 C.ar    1  UNL1        0.1496
      3 O         140.0416  143.0981  166.4715 O.2     1  UNL1       -0.4534
      4 C         139.9206  143.7751  165.1385 C.ar    1  UNL1        0.1454
      5 C         138.7843  144.5004  164.4806 C.ar    1  UNL1        0.0406
      6 C         138.9612  145.0864  163.1112 C.ar    1  UNL1        0.0395
      7 C         140.2744  144.9472  162.3997 C.ar    1  UNL1        0.1311
      8 O         140.4512  145.5333  161.0303 O.3     1  UNL1       -0.5058
      9 C         141.4107  144.2220  163.0576 C.ar    1  UNL1        0.0308
     10 C         141.2338  143.6359  164.4270 C.ar    1  UNL1        0.0421
     11 H         139.7414  145.9863  160.6193 H       1  UNL1        0.2922
     12 C         141.9835  141.7834  167.7544 C.ar    1  UNL1        0.0349
     13 C         141.6183  140.3427  167.9565 C.ar    1  UNL1        0.0061
     14 C         142.1722  139.5856  169.1270 C.ar    1  UNL1        0.0367
     15 C         143.0913  140.2693  170.0954 C.ar    1  UNL1        0.1337
     16 O         143.6452  139.5122  171.2659 O.3     1  UNL1       -0.5055
     17 C         143.4565  141.7100  169.8933 C.ar    1  UNL1        0.0367
     18 C         142.9026  142.4671  168.7228 C.ar    1  UNL1        0.0061
     19 H         143.4171  138.6122  171.3921 H       1  UNL1        0.2922
     20 C         145.3071  140.8701  163.9510 C.3     1  UNL1        0.1109
     21 N         143.8870  141.2365  164.2660 N.am    1  UNL1       -0.2991
     22 C         143.5864  142.5066  165.0054 C.2     1  UNL1        0.2490
     23 O         144.7059  143.4101  165.4297 O.2     1  UNL1       -0.2700
     24 H         143.1522  140.6433  163.9874 H       1  UNL1        0.1498
     25 C         142.7238  144.0827  162.3462 C.3     1  UNL1        0.1023
     26 N         142.9480  142.9385  161.4025 N.3     1  UNL1       -0.2686
     27 C         143.9299  142.6433  160.3077 C.3     1  UNL1        0.0761
     28 C         143.2650  141.3202  160.0680 C.3     1  UNL1        0.0592
     29 C         142.4546  140.0598  160.0026 C.3     1  UNL1        0.0372
     30 C         143.0277  139.1961  158.9182 C.3     1  UNL1        0.1423
     31 O         144.1922  139.9228  158.3135 O.3     1  UNL1       -0.3537
     32 C         144.3389  141.2357  159.0242 C.3     1  UNL1        0.1448
     33 C         142.2831  141.6155  161.1628 C.3     1  UNL1        0.0761
@<TRIPOS>BOND
     1    20    21    1
     2    21    22   am
     3    22    23    2
     4    22     1    1
     5     1     2   ar
     6     2    12    1
     7    12    13   ar
     8    13    14   ar
     9    14    15   ar
    10    15    16    1
    11    15    17   ar
    12    17    18   ar
    13     2     3   ar
    14     3     4   ar
    15     4     5   ar
    16     5     6   ar
    17     6     7   ar
    18     7     8    1
    19     7     9   ar
    20     9    25    1
    21    25    26    1
    22    26    27    1
    23    27    28    1
    24    28    29    1
    25    29    30    1
    26    30    31    1
    27    31    32    1
    28    28    33    1
    29     9    10   ar
    30    10     1   ar
    31    18    12   ar
    32    10     4   ar
    33    33    26    1
    34    32    28    1
    35    21    24    1
    36    16    19    1
    37     8    11    1
@<TRIPOS>MOLECULE
*****
 33 37 0 0 0
SMALL
GASTEIGER

@<TRIPOS>ATOM
      1 C         140.2291  141.5741  165.5944 C.ar    1  UNL1        0.0906
      2 C         140.7370  140.9876  166.8781 C.ar    1  UNL1        0.1496
      3 O         140.4783  139.5104  166.8472 O.2     1  UNL1       -0.4534
      4 C         139.8103  139.1840  165.5444 C.ar    1  UNL1        0.1454
      5 C         139.3225  137.8901  164.9631 C.ar    1  UNL1        0.0406
      6 C         138.6807  137.8717  163.6075 C.ar    1  UNL1        0.0395
      7 C         138.5266  139.1472  162.8332 C.ar    1  UNL1        0.1311
      8 O         137.8848  139.1288  161.4776 O.3     1  UNL1       -0.5058
      9 C         139.0145  140.4410  163.4145 C.ar    1  UNL1        0.0308
     10 C         139.6563  140.4594  164.7701 C.ar    1  UNL1        0.0421
     11 H         137.5800  138.3205  161.1144 H       1  UNL1        0.2922
     12 C         141.3893  141.7452  167.9964 C.ar    1  UNL1        0.0349
     13 C         142.8490  141.5515  168.2823 C.ar    1  UNL1        0.0061
     14 C         143.5012  142.3091  169.4006 C.ar    1  UNL1        0.0367
     15 C         142.6938  143.2605  170.2330 C.ar    1  UNL1        0.1337
     16 O         143.3460  144.0181  171.3513 O.3     1  UNL1       -0.5055
     17 C         141.2341  143.4542  169.9471 C.ar    1  UNL1        0.0367
     18 C         140.5818  142.6965  168.8289 C.ar    1  UNL1        0.0061
     19 H         144.2578  143.8971  171.5299 H       1  UNL1        0.2922
     20 C         141.4671  144.9732  163.9624 C.3     1  UNL1        0.1109
     21 N         141.4121  143.5261  164.3533 N.am    1  UNL1       -0.2991
     22 C         140.2841  143.0212  165.2036 C.2     1  UNL1        0.2490
     23 O         139.2114  143.9636  165.6630 O.2     1  UNL1       -0.2700
     24 H         142.1162  142.9076  164.0517 H       1  UNL1        0.1498
     25 C         138.8605  141.7165  162.6403 C.3     1  UNL1        0.1023
     26 N         139.9578  142.1767  161.7271 N.3     1  UNL1       -0.2686
     27 C         140.1822  143.3809  160.8613 C.3     1  UNL1        0.0761
     28 C         141.5098  142.8276  160.4355 C.3     1  UNL1        0.0592
     29 C         142.7859  142.0926  160.1505 C.3     1  UNL1        0.0372
     30 C         143.5885  142.9144  159.1858 C.3     1  UNL1        0.1423
     31 O         142.8084  144.1572  158.8747 O.3     1  UNL1       -0.3537
     32 C         141.5237  144.1035  159.6471 C.3     1  UNL1        0.1448
     33 C         141.2855  141.6233  161.3013 C.3     1  UNL1        0.0761
@<TRIPOS>BOND
     1    20    21    1
     2    21    22   am
     3    22    23    2
     4    22     1    1
     5     1     2   ar
     6     2    12    1
     7    12    13   ar
     8    13    14   ar
     9    14    15   ar
    10    15    16    1
    11    15    17   ar
    12    17    18   ar
    13     2     3   ar
    14     3     4   ar
    15     4     5   ar
    16     5     6   ar
    17     6     7   ar
    18     7     8    1
    19     7     9   ar
    20     9    25    1
    21    25    26    1
    22    26    27    1
    23    27    28    1
    24    28    29    1
    25    29    30    1
    26    30    31    1
    27    31    32    1
    28    28    33    1
    29     9    10   ar
    30    10     1   ar
    31    18    12   ar
    32    10     4   ar
    33    33    26    1
    34    32    28    1
    35    21    24    1
    36    16    19    1
    37     8    11    1
@<TRIPOS>MOLECULE
*****
 33 37 0 0 0
SMALL
GASTEIGER

@<TRIPOS>ATOM
      1 C         141.5499  140.7474  165.5959 C.ar    1  UNL1        0.0906
      2 C         141.1111  140.7225  167.0300 C.ar    1  UNL1        0.1496
      3 O         140.0145  139.7075  167.1617 O.2     1  UNL1       -0.4534
      4 C         139.7757  139.1050  165.8089 C.ar    1  UNL1        0.1454
      5 C         138.8167  138.0543  165.3332 C.ar    1  UNL1        0.0406
      6 C         138.8067  137.6462  163.8899 C.ar    1  UNL1        0.0395
      7 C         139.7556  138.2889  162.9222 C.ar    1  UNL1        0.1311
      8 O         139.7455  137.8808  161.4787 O.3     1  UNL1       -0.5058
      9 C         140.7145  139.3397  163.3978 C.ar    1  UNL1        0.0308
     10 C         140.7246  139.7477  164.8412 C.ar    1  UNL1        0.0421
     11 H         139.1465  137.2244  161.1816 H       1  UNL1        0.2922
     12 C         141.6705  141.5648  168.1380 C.ar    1  UNL1        0.0349
     13 C         143.0827  141.3565  168.5986 C.ar    1  UNL1        0.0061
     14 C         143.6422  142.1987  169.7066 C.ar    1  UNL1        0.0367
     15 C         142.7894  143.2493  170.3540 C.ar    1  UNL1        0.1337
     16 O         143.3489  144.0915  171.4619 O.3     1  UNL1       -0.5055
     17 C         141.3772  143.4575  169.8934 C.ar    1  UNL1        0.0367
     18 C         140.8178  142.6153  168.7854 C.ar    1  UNL1        0.0061
     19 H         144.2311  143.9614  171.7496 H       1  UNL1        0.2922
     20 C         143.3802  143.8911  164.0093 C.3     1  UNL1        0.1109
     21 N         142.3048  143.0196  164.5873 N.am    1  UNL1       -0.2991
     22 C         142.6252  141.6189  165.0179 C.2     1  UNL1        0.2490
     23 O         144.0210  141.0898  164.8705 O.2     1  UNL1       -0.2700
     24 H         141.3887  143.3669  164.6840 H       1  UNL1        0.1498
     25 C         141.6635  139.9824  162.4301 C.3     1  UNL1        0.1023
     26 N         141.3441  141.3271  161.8475 N.3     1  UNL1       -0.2686
     27 C         140.1915  142.2815  161.9514 C.3     1  UNL1        0.0761
     28 C         140.8923  143.2291  161.0235 C.3     1  UNL1        0.0592
     29 C         141.7648  144.0156  160.0908 C.3     1  UNL1        0.0372
     30 C         141.0560  145.2961  159.7622 C.3     1  UNL1        0.1423
     31 O         139.7454  145.3009  160.4917 O.3     1  UNL1       -0.3537
     32 C         139.6443  144.0234  161.2713 C.3     1  UNL1        0.1448
     33 C         142.0449  142.2747  160.9196 C.3     1  UNL1        0.0761
@<TRIPOS>BOND
     1    20    21    1
     2    21    22   am
     3    22    23    2
     4    22     1    1
     5     1     2   ar
     6     2    12    1
     7    12    13   ar
     8    13    14   ar
     9    14    15   ar
    10    15    16    1
    11    15    17   ar
    12    17    18   ar
    13     2     3   ar
    14     3     4   ar
    15     4     5   ar
    16     5     6   ar
    17     6     7   ar
    18     7     8    1
    19     7     9   ar
    20     9    25    1
    21    25    26    1
    22    26    27    1
    23    27    28    1
    24    28    29    1
    25    29    30    1
    26    30    31    1
    27    31    32    1
    28    28    33    1
    29     9    10   ar
    30    10     1   ar
    31    18    12   ar
    32    10     4   ar
    33    33    26    1
    34    32    28    1
    35    21    24    1
    36    16    19    1
    37     8    11    1
@<TRIPOS>MOLECULE
*****
 33 37 0 0 0
SMALL
GASTEIGER

@<TRIPOS>ATOM
      1 C         141.1465  141.4574  164.2880 C.ar    1  UNL1        0.0906
      2 C         141.1943  140.1334  164.9912 C.ar    1  UNL1        0.1496
      3 O         142.6057  139.6288  164.9340 O.2     1  UNL1       -0.4534
      4 C         143.4303  140.6411  164.1954 C.ar    1  UNL1        0.1454
      5 C         144.8857  140.6797  163.8348 C.ar    1  UNL1        0.0406
      6 C         145.4394  141.8485  163.0750 C.ar    1  UNL1        0.0395
      7 C         144.5375  142.9786  162.6757 C.ar    1  UNL1        0.1311
      8 O         145.0912  144.1475  161.9159 O.3     1  UNL1       -0.5058
      9 C         143.0821  142.9400  163.0363 C.ar    1  UNL1        0.0308
     10 C         142.5284  141.7712  163.7961 C.ar    1  UNL1        0.0421
     11 H         146.0004  144.1716  161.6906 H       1  UNL1        0.2922
     12 C         140.0343  139.4363  165.6381 C.ar    1  UNL1        0.0349
     13 C         139.4971  138.1670  165.0462 C.ar    1  UNL1        0.0061
     14 C         138.3372  137.4699  165.6930 C.ar    1  UNL1        0.0367
     15 C         137.7143  138.0420  166.9318 C.ar    1  UNL1        0.1337
     16 O         136.5543  137.3449  167.5787 O.3     1  UNL1       -0.5055
     17 C         138.2514  139.3113  167.5237 C.ar    1  UNL1        0.0367
     18 C         139.4114  140.0084  166.8769 C.ar    1  UNL1        0.0061
     19 H         136.2188  136.5520  167.2089 H       1  UNL1        0.2922
     20 C         137.8356  142.9906  162.7268 C.3     1  UNL1        0.1109
     21 N         139.0517  142.1312  162.9066 N.am    1  UNL1       -0.2991
     22 C         139.9304  142.3169  164.1081 C.2     1  UNL1        0.2490
     23 O         139.5928  143.3620  165.1297 O.2     1  UNL1       -0.2700
     24 H         139.2732  141.4452  162.2361 H       1  UNL1        0.1498
     25 C         142.1802  144.0702  162.6370 C.3     1  UNL1        0.1023
     26 N         141.8367  144.2811  161.1922 N.3     1  UNL1       -0.2686
     27 C         140.8795  145.1638  160.4475 C.3     1  UNL1        0.0761
     28 C         141.3510  144.5795  159.1489 C.3     1  UNL1        0.0592
     29 C         141.9664  143.8643  157.9829 C.3     1  UNL1        0.0372
     30 C         141.3275  144.3855  156.7297 C.3     1  UNL1        0.1423
     31 O         140.3173  145.4228  157.1213 O.3     1  UNL1       -0.3537
     32 C         140.3318  145.5427  158.6165 C.3     1  UNL1        0.1448
     33 C         142.3082  143.6968  159.8936 C.3     1  UNL1        0.0761
@<TRIPOS>BOND
     1    20    21    1
     2    21    22   am
     3    22    23    2
     4    22     1    1
     5     1     2   ar
     6     2    12    1
     7    12    13   ar
     8    13    14   ar
     9    14    15   ar
    10    15    16    1
    11    15    17   ar
    12    17    18   ar
    13     2     3   ar
    14     3     4   ar
    15     4     5   ar
    16     5     6   ar
    17     6     7   ar
    18     7     8    1
    19     7     9   ar
    20     9    25    1
    21    25    26    1
    22    26    27    1
    23    27    28    1
    24    28    29    1
    25    29    30    1
    26    30    31    1
    27    31    32    1
    28    28    33    1
    29     9    10   ar
    30    10     1   ar
    31    18    12   ar
    32    10     4   ar
    33    33    26    1
    34    32    28    1
    35    21    24    1
    36    16    19    1
    37     8    11    1
@<TRIPOS>MOLECULE
*****
 33 37 0 0 0
SMALL
GASTEIGER

@<TRIPOS>ATOM
      1 C         140.6758  141.4199  165.4148 C.ar    1  UNL1        0.0906
      2 C         140.7623  142.0110  166.7907 C.ar    1  UNL1        0.1496
      3 O         139.9503  143.2721  166.8052 O.2     1  UNL1       -0.4534
      4 C         139.3619  143.4604  165.4383 C.ar    1  UNL1        0.1454
      5 C         138.4759  144.5263  164.8651 C.ar    1  UNL1        0.0406
      6 C         138.0382  144.4475  163.4326 C.ar    1  UNL1        0.0395
      7 C         138.4866  143.3027  162.5733 C.ar    1  UNL1        0.1311
      8 O         138.0488  143.2239  161.1407 O.3     1  UNL1       -0.5058
      9 C         139.3726  142.2368  163.1465 C.ar    1  UNL1        0.0308
     10 C         139.8103  142.3156  164.5790 C.ar    1  UNL1        0.0421
     11 H         137.4953  143.8897  160.7826 H       1  UNL1        0.2922
     12 C         141.5266  141.4411  167.9487 C.ar    1  UNL1        0.0349
     13 C         142.6790  142.2021  168.5341 C.ar    1  UNL1        0.0061
     14 C         143.4433  141.6322  169.6921 C.ar    1  UNL1        0.0367
     15 C         143.0552  140.3013  170.2648 C.ar    1  UNL1        0.1337
     16 O         143.8195  139.7314  171.4229 O.3     1  UNL1       -0.5055
     17 C         141.9027  139.5403  169.6795 C.ar    1  UNL1        0.0367
     18 C         141.1384  140.1102  168.5214 C.ar    1  UNL1        0.0061
     19 H         144.5394  140.2068  171.7885 H       1  UNL1        0.2922
     20 C         141.3174  137.5699  164.6958 C.3     1  UNL1        0.1109
     21 N         140.6547  138.8348  165.1552 N.am    1  UNL1       -0.2991
     22 C         141.3384  140.1550  164.9554 C.2     1  UNL1        0.2490
     23 O         142.6845  140.2102  164.2961 O.2     1  UNL1       -0.2700
     24 H         139.7712  138.7985  165.5879 H       1  UNL1        0.1498
     25 C         139.8210  141.0920  162.2871 C.3     1  UNL1        0.1023
     26 N         140.9856  141.2633  161.3575 N.3     1  UNL1       -0.2686
     27 C         141.7334  140.3649  160.4174 C.3     1  UNL1        0.0761
     28 C         142.6327  141.5055  160.0426 C.3     1  UNL1        0.0592
     29 C         143.4038  142.7725  159.8196 C.3     1  UNL1        0.0372
     30 C         144.4783  142.4899  158.8118 C.3     1  UNL1        0.1423
     31 O         144.3713  141.0481  158.4121 O.3     1  UNL1       -0.3537
     32 C         143.2306  140.4397  159.1727 C.3     1  UNL1        0.1448
     33 C         141.8849  142.4038  160.9827 C.3     1  UNL1        0.0761
@<TRIPOS>BOND
     1    20    21    1
     2    21    22   am
     3    22    23    2
     4    22     1    1
     5     1     2   ar
     6     2    12    1
     7    12    13   ar
     8    13    14   ar
     9    14    15   ar
    10    15    16    1
    11    15    17   ar
    12    17    18   ar
    13     2     3   ar
    14     3     4   ar
    15     4     5   ar
    16     5     6   ar
    17     6     7   ar
    18     7     8    1
    19     7     9   ar
    20     9    25    1
    21    25    26    1
    22    26    27    1
    23    27    28    1
    24    28    29    1
    25    29    30    1
    26    30    31    1
    27    31    32    1
    28    28    33    1
    29     9    10   ar
    30    10     1   ar
    31    18    12   ar
    32    10     4   ar
    33    33    26    1
    34    32    28    1
    35    21    24    1
    36    16    19    1
    37     8    11    1
@<TRIPOS>MOLECULE
*****
 33 37 0 0 0
SMALL
GASTEIGER

@<TRIPOS>ATOM
      1 C         141.5723  142.1139  165.3135 C.ar    1  UNL1        0.0906
      2 C         141.1726  142.2600  166.7518 C.ar    1  UNL1        0.1496
      3 O         139.9852  143.1746  166.8123 O.2     1  UNL1       -0.4534
      4 C         139.6511  143.5938  165.4113 C.ar    1  UNL1        0.1454
      5 C         138.5805  144.4877  164.8595 C.ar    1  UNL1        0.0406
      6 C         138.4907  144.7260  163.3813 C.ar    1  UNL1        0.0395
      7 C         139.4717  144.0705  162.4549 C.ar    1  UNL1        0.1311
      8 O         139.3819  144.3089  160.9767 O.3     1  UNL1       -0.5058
      9 C         140.5423  143.1766  163.0068 C.ar    1  UNL1        0.0308
     10 C         140.6320  142.9382  164.4850 C.ar    1  UNL1        0.0421
     11 H         138.7131  144.8673  160.6319 H       1  UNL1        0.2922
     12 C         141.8425  141.6062  167.9239 C.ar    1  UNL1        0.0349
     13 C         141.5152  140.1861  168.2787 C.ar    1  UNL1        0.0061
     14 C         142.1852  139.5323  169.4508 C.ar    1  UNL1        0.0367
     15 C         143.1825  140.2988  170.2681 C.ar    1  UNL1        0.1337
     16 O         143.8524  139.6450  171.4402 O.3     1  UNL1       -0.5055
     17 C         143.5098  141.7189  169.9133 C.ar    1  UNL1        0.0367
     18 C         142.8398  142.3727  168.7412 C.ar    1  UNL1        0.0061
     19 H         143.6479  138.7579  171.6618 H       1  UNL1        0.2922
     20 C         143.6031  139.0713  163.7745 C.3     1  UNL1        0.1109
     21 N         142.4632  139.8967  164.2933 N.am    1  UNL1       -0.2991
     22 C         142.7122  141.2884  164.7947 C.2     1  UNL1        0.2490
     23 O         144.1011  141.8545  164.7772 O.2     1  UNL1       -0.2700
     24 H         141.5516  139.5251  164.3047 H       1  UNL1        0.1498
     25 C         141.5232  142.5210  162.0805 C.3     1  UNL1        0.1023
     26 N         141.0333  141.6303  160.9775 N.3     1  UNL1       -0.2686
     27 C         140.2248  140.3685  160.9132 C.3     1  UNL1        0.0761
     28 C         140.3403  140.3705  159.4177 C.3     1  UNL1        0.0592
     29 C         140.5810  140.5701  157.9507 C.3     1  UNL1        0.0372
     30 C         139.9131  139.4467  157.2144 C.3     1  UNL1        0.1423
     31 O         139.2597  138.5529  158.2264 O.3     1  UNL1       -0.3537
     32 C         139.5238  139.1239  159.5881 C.3     1  UNL1        0.1448
     33 C         141.1488  141.6324  159.4820 C.3     1  UNL1        0.0761
@<TRIPOS>BOND
     1    20    21    1
     2    21    22   am
     3    22    23    2
     4    22     1    1
     5     1     2   ar
     6     2    12    1
     7    12    13   ar
     8    13    14   ar
     9    14    15   ar
    10    15    16    1
    11    15    17   ar
    12    17    18   ar
    13     2     3   ar
    14     3     4   ar
    15     4     5   ar
    16     5     6   ar
    17     6     7   ar
    18     7     8    1
    19     7     9   ar
    20     9    25    1
    21    25    26    1
    22    26    27    1
    23    27    28    1
    24    28    29    1
    25    29    30    1
    26    30    31    1
    27    31    32    1
    28    28    33    1
    29     9    10   ar
    30    10     1   ar
    31    18    12   ar
    32    10     4   ar
    33    33    26    1
    34    32    28    1
    35    21    24    1
    36    16    19    1
    37     8    11    1
@<TRIPOS>MOLECULE
*****
 33 37 0 0 0
SMALL
GASTEIGER

@<TRIPOS>ATOM
      1 C         141.4907  140.5850  165.5324 C.ar    1  UNL1        0.0906
      2 C         141.0507  140.5858  166.9664 C.ar    1  UNL1        0.1496
      3 O         139.9518  139.5756  167.1146 O.2     1  UNL1       -0.4534
      4 C         139.7126  138.9506  165.7722 C.ar    1  UNL1        0.1454
      5 C         138.7517  137.8940  165.3138 C.ar    1  UNL1        0.0406
      6 C         138.7419  137.4612  163.8777 C.ar    1  UNL1        0.0395
      7 C         139.6930  138.0850  162.8999 C.ar    1  UNL1        0.1311
      8 O         139.6832  137.6522  161.4636 O.3     1  UNL1       -0.5058
      9 C         140.6539  139.1416  163.3582 C.ar    1  UNL1        0.0308
     10 C         140.6638  139.5744  164.7943 C.ar    1  UNL1        0.0421
     11 H         139.0829  136.9921  161.1774 H       1  UNL1        0.2922
     12 C         141.6112  141.4457  168.0602 C.ar    1  UNL1        0.0349
     13 C         143.0115  141.2204  168.5483 C.ar    1  UNL1        0.0061
     14 C         143.5720  142.0803  169.6421 C.ar    1  UNL1        0.0367
     15 C         142.7321  143.1656  170.2478 C.ar    1  UNL1        0.1337
     16 O         143.2926  144.0255  171.3416 O.3     1  UNL1       -0.5055
     17 C         141.3318  143.3909  169.7597 C.ar    1  UNL1        0.0367
     18 C         140.7713  142.5309  168.6659 C.ar    1  UNL1        0.0061
     19 H         144.1674  143.8847  171.6465 H       1  UNL1        0.2922
     20 C         145.0562  141.7956  164.2785 C.3     1  UNL1        0.1109
     21 N         143.9784  140.9366  164.8705 N.am    1  UNL1       -0.2991
     22 C         142.5685  141.4441  164.9404 C.2     1  UNL1        0.2490
     23 O         142.2365  142.8104  164.4183 O.2     1  UNL1       -0.2700
     24 H         144.1964  140.0398  165.2132 H       1  UNL1        0.1498
     25 C         141.6051  139.7655  162.3803 C.3     1  UNL1        0.1023
     26 N         141.1005  140.7489  161.3664 N.3     1  UNL1       -0.2686
     27 C         140.4253  142.0869  161.4310 C.3     1  UNL1        0.0761
     28 C         140.3867  142.1399  159.9324 C.3     1  UNL1        0.0592
     29 C         140.4543  141.9828  158.4423 C.3     1  UNL1        0.0372
     30 C         139.8352  143.1990  157.8195 C.3     1  UNL1        0.1423
     31 O         139.3851  144.1076  158.9249 O.3     1  UNL1       -0.3537
     32 C         139.7259  143.4530  160.2307 C.3     1  UNL1        0.1448
     33 C         141.0619  140.8020  159.8678 C.3     1  UNL1        0.0761
@<TRIPOS>BOND
     1    20    21    1
     2    21    22   am
     3    22    23    2
     4    22     1    1
     5     1     2   ar
     6     2    12    1
     7    12    13   ar
     8    13    14   ar
     9    14    15   ar
    10    15    16    1
    11    15    17   ar
    12    17    18   ar
    13     2     3   ar
    14     3     4   ar
    15     4     5   ar
    16     5     6   ar
    17     6     7   ar
    18     7     8    1
    19     7     9   ar
    20     9    25    1
    21    25    26    1
    22    26    27    1
    23    27    28    1
    24    28    29    1
    25    29    30    1
    26    30    31    1
    27    31    32    1
    28    28    33    1
    29     9    10   ar
    30    10     1   ar
    31    18    12   ar
    32    10     4   ar
    33    33    26    1
    34    32    28    1
    35    21    24    1
    36    16    19    1
    37     8    11    1
@<TRIPOS>MOLECULE
*****
 33 37 0 0 0
SMALL
GASTEIGER

@<TRIPOS>ATOM
      1 C         140.8005  141.2336  165.3963 C.ar    1  UNL1        0.0906
      2 C         140.8458  140.8271  166.8394 C.ar    1  UNL1        0.1496
      3 O         140.1922  139.4827  166.9629 O.2     1  UNL1       -0.4534
      4 C         139.7428  139.0583  165.5961 C.ar    1  UNL1        0.1454
      5 C         139.0399  137.8264  165.1082 C.ar    1  UNL1        0.0406
      6 C         138.7130  137.6766  163.6520 C.ar    1  UNL1        0.0395
      7 C         139.0890  138.7588  162.6837 C.ar    1  UNL1        0.1311
      8 O         138.7620  138.6089  161.2274 O.3     1  UNL1       -0.5058
      9 C         139.7919  139.9907  163.1717 C.ar    1  UNL1        0.0308
     10 C         140.1188  140.1405  164.6279 C.ar    1  UNL1        0.0421
     11 H         138.3229  137.8393  160.9226 H       1  UNL1        0.2922
     12 C         141.4404  141.6248  167.9619 C.ar    1  UNL1        0.0349
     13 C         140.5990  142.6231  168.7003 C.ar    1  UNL1        0.0061
     14 C         141.1936  143.4209  169.8228 C.ar    1  UNL1        0.0367
     15 C         142.6296  143.2204  170.2069 C.ar    1  UNL1        0.1337
     16 O         143.2242  144.0181  171.3294 O.3     1  UNL1       -0.5055
     17 C         143.4710  142.2221  169.4685 C.ar    1  UNL1        0.0367
     18 C         142.8765  141.4243  168.3460 C.ar    1  UNL1        0.0061
     19 H         142.6986  144.6418  171.7907 H       1  UNL1        0.2922
     20 C         140.9615  144.9383  163.9822 C.3     1  UNL1        0.1109
     21 N         140.4202  143.6626  164.5562 N.am    1  UNL1       -0.2991
     22 C         141.3418  142.5093  164.8222 C.2     1  UNL1        0.2490
     23 O         142.8047  142.6319  164.5142 O.2     1  UNL1       -0.2700
     24 H         139.4600  143.5822  164.7584 H       1  UNL1        0.1498
     25 C         140.1679  141.0729  162.2034 C.3     1  UNL1        0.1023
     26 N         141.0097  140.7479  161.0052 N.3     1  UNL1       -0.2686
     27 C         142.1531  139.8157  160.7335 C.3     1  UNL1        0.0761
     28 C         142.2004  140.2883  159.3107 C.3     1  UNL1        0.0592
     29 C         142.0681  140.9009  157.9480 C.3     1  UNL1        0.0372
     30 C         143.1083  140.2849  157.0599 C.3     1  UNL1        0.1423
     31 O         143.8834  139.2915  157.8738 O.3     1  UNL1       -0.3537
     32 C         143.3222  139.2937  159.2649 C.3     1  UNL1        0.1448
     33 C         141.0570  141.2205  159.5824 C.3     1  UNL1        0.0761
@<TRIPOS>BOND
     1    20    21    1
     2    21    22   am
     3    22    23    2
     4    22     1    1
     5     1     2   ar
     6     2    12    1
     7    12    13   ar
     8    13    14   ar
     9    14    15   ar
    10    15    16    1
    11    15    17   ar
    12    17    18   ar
    13     2     3   ar
    14     3     4   ar
    15     4     5   ar
    16     5     6   ar
    17     6     7   ar
    18     7     8    1
    19     7     9   ar
    20     9    25    1
    21    25    26    1
    22    26    27    1
    23    27    28    1
    24    28    29    1
    25    29    30    1
    26    30    31    1
    27    31    32    1
    28    28    33    1
    29     9    10   ar
    30    10     1   ar
    31    18    12   ar
    32    10     4   ar
    33    33    26    1
    34    32    28    1
    35    21    24    1
    36    16    19    1
    37     8    11    1
