@<TRIPOS>MOLECULE
*****
 28 31 0 0 0
SMALL
GASTEIGER

@<TRIPOS>ATOM
      1 C         140.9795  143.0323  163.1031 C.3     1  UNL1        0.1747
      2 C         142.2019  142.1998  162.8526 C.3     1  UNL1        0.0406
      3 C         142.6221  141.1645  163.8533 C.3     1  UNL1        0.0403
      4 C         143.8445  140.3319  163.6028 C.3     1  UNL1        0.0569
      5 C         144.6466  140.5347  162.3516 C.3     1  UNL1        0.0122
      6 S         144.2648  139.2966  164.6035 S.3     1  UNL1       -0.0816
      7 C         143.4627  139.0938  165.8548 C.2     1  UNL1        0.1482
      8 N         143.8831  138.0585  166.8555 N.pl3   1  UNL1       -0.3380
      9 N         142.2404  139.9263  166.1053 N.2     1  UNL1       -0.2484
     10 C         141.8201  140.9617  165.1045 C.3     1  UNL1        0.1352
     11 C         140.5977  141.7942  165.3550 C.3     1  UNL1        0.1691
     12 O         140.1775  142.8295  164.3543 O.3     1  UNL1       -0.3462
     13 H         144.6854  137.5121  166.6911 H       1  UNL1        0.1442
     14 H         143.3567  137.9253  167.6767 H       1  UNL1        0.1442
     15 C         141.0180  140.7589  166.3557 C.ar    1  UNL1        0.0278
     16 C         139.8606  139.8047  166.3583 C.ar    1  UNL1        0.0021
     17 C         139.0585  139.6019  167.6095 C.ar    1  UNL1        0.0295
     18 C         139.4139  140.3533  168.8582 C.ar    1  UNL1        0.1424
     19 F         138.6118  140.1505  170.1094 F       1  UNL1       -0.2041
     20 C         140.5713  141.3074  168.8556 C.ar    1  UNL1        0.0590
     21 C         141.3733  141.5102  167.6044 C.ar    1  UNL1        0.1402
     22 F         142.5307  142.4644  167.6018 F       1  UNL1       -0.2044
     23 C         140.3812  145.6970  158.5839 C.3     1  UNL1        0.0557
     24 C         140.2842  145.2924  160.0251 C.ar    1  UNL1        0.1008
     25 C         140.9137  144.0802  160.6448 C.ar    1  UNL1        0.0561
     26 C         140.5592  144.0676  162.1023 C.ar    1  UNL1        0.1809
     27 O         139.7106  145.2722  162.3833 O.2     1  UNL1       -0.3556
     28 N         139.5406  146.0291  161.0996 N.ar    1  UNL1       -0.0817
@<TRIPOS>BOND
     1    23    24    1
     2    24    25   ar
     3    25    26   ar
     4    26     1    1
     5     1     2    1
     6     3     2    1
     7     3     4    1
     8     4     5    1
     9     4     6    1
    10     6     7    1
    11     7     8    1
    12     7     9    2
    13     9    10    1
    14    10    15    1
    15    15    16   ar
    16    16    17   ar
    17    17    18   ar
    18    18    19    1
    19    18    20   ar
    20    20    21   ar
    21    21    22    1
    22    10    11    1
    23    11    12    1
    24    26    27   ar
    25    27    28   ar
    26    28    24   ar
    27    12     1    1
    28    10     3    1
    29    21    15   ar
    30     8    13    1
    31     8    14    1
@<TRIPOS>MOLECULE
*****
 28 31 0 0 0
SMALL
GASTEIGER

@<TRIPOS>ATOM
      1 C         140.8732  142.8211  162.3777 C.3     1  UNL1        0.1747
      2 C         142.3086  142.4400  162.5885 C.3     1  UNL1        0.0406
      3 C         142.6576  141.3199  163.5230 C.3     1  UNL1        0.0403
      4 C         144.0930  140.9387  163.7339 C.3     1  UNL1        0.0569
      5 C         145.1793  141.6777  163.0102 C.3     1  UNL1        0.0122
      6 S         144.4421  139.8185  164.6684 S.3     1  UNL1       -0.0816
      7 C         143.3558  139.0795  165.3921 C.2     1  UNL1        0.1482
      8 N         143.7049  137.9593  166.3267 N.pl3   1  UNL1       -0.3380
      9 N         141.9204  139.4606  165.1813 N.2     1  UNL1       -0.2484
     10 C         141.5713  140.5808  164.2468 C.3     1  UNL1        0.1352
     11 C         140.1360  140.9619  164.0360 C.3     1  UNL1        0.1691
     12 O         139.7869  142.0821  163.1014 O.3     1  UNL1       -0.3462
     13 H         144.6470  137.7092  166.4651 H       1  UNL1        0.1442
     14 H         142.9919  137.4742  166.8017 H       1  UNL1        0.1442
     15 C         140.4850  139.8418  164.9705 C.ar    1  UNL1        0.0278
     16 C         139.9956  140.3392  166.2983 C.ar    1  UNL1        0.0021
     17 C         138.9093  139.6002  167.0220 C.ar    1  UNL1        0.0295
     18 C         138.3124  138.3637  166.4179 C.ar    1  UNL1        0.1424
     19 F         137.2261  137.6246  167.1416 F       1  UNL1       -0.2041
     20 C         138.8018  137.8663  165.0902 C.ar    1  UNL1        0.0590
     21 C         139.8881  138.6053  164.3664 C.ar    1  UNL1        0.1402
     22 F         140.3776  138.1079  163.0387 F       1  UNL1       -0.2044
     23 C         140.4378  145.7790  158.0254 C.3     1  UNL1        0.0557
     24 C         140.3240  145.3009  159.4426 C.ar    1  UNL1        0.1008
     25 C         140.8643  144.0105  159.9838 C.ar    1  UNL1        0.0561
     26 C         140.5241  143.9413  161.4431 C.ar    1  UNL1        0.1809
     27 O         139.7735  145.1889  161.8038 O.2     1  UNL1       -0.3556
     28 N         139.6498  146.0292  160.5674 N.ar    1  UNL1       -0.0817
@<TRIPOS>BOND
     1    23    24    1
     2    24    25   ar
     3    25    26   ar
     4    26     1    1
     5     1     2    1
     6     3     2    1
     7     3     4    1
     8     4     5    1
     9     4     6    1
    10     6     7    1
    11     7     8    1
    12     7     9    2
    13     9    10    1
    14    10    15    1
    15    15    16   ar
    16    16    17   ar
    17    17    18   ar
    18    18    19    1
    19    18    20   ar
    20    20    21   ar
    21    21    22    1
    22    10    11    1
    23    11    12    1
    24    26    27   ar
    25    27    28   ar
    26    28    24   ar
    27    12     1    1
    28    10     3    1
    29    21    15   ar
    30     8    13    1
    31     8    14    1
@<TRIPOS>MOLECULE
*****
 28 31 0 0 0
SMALL
GASTEIGER

@<TRIPOS>ATOM
      1 C         142.1029  141.9527  165.9569 C.3     1  UNL1        0.1747
      2 C         140.9905  142.9422  165.7738 C.3     1  UNL1        0.0406
      3 C         140.6654  143.4601  164.4041 C.3     1  UNL1        0.0403
      4 C         139.5531  144.4496  164.2209 C.3     1  UNL1        0.0569
      5 C         138.7659  144.9212  165.4074 C.3     1  UNL1        0.0122
      6 S         139.2279  144.9675  162.8512 S.3     1  UNL1       -0.0816
      7 C         140.0151  144.4959  161.6647 C.2     1  UNL1        0.1482
      8 N         139.6900  145.0138  160.2950 N.pl3   1  UNL1       -0.3380
      9 N         141.1275  143.5064  161.8478 N.2     1  UNL1       -0.2484
     10 C         141.4526  142.9884  163.2175 C.3     1  UNL1        0.1352
     11 C         142.5649  141.9989  163.4007 C.3     1  UNL1        0.1691
     12 O         142.8901  141.4810  164.7703 O.3     1  UNL1       -0.3462
     13 H         138.9599  145.6633  160.1748 H       1  UNL1        0.1442
     14 H         140.2066  144.7043  159.5162 H       1  UNL1        0.1442
     15 C         142.2398  142.5168  162.0310 C.ar    1  UNL1        0.0278
     16 C         141.7917  141.3064  161.2667 C.ar    1  UNL1        0.0021
     17 C         142.5789  140.8348  160.0801 C.ar    1  UNL1        0.0295
     18 C         143.8142  141.5736  159.6579 C.ar    1  UNL1        0.1424
     19 F         144.6014  141.1020  158.4714 F       1  UNL1       -0.2041
     20 C         144.2623  142.7840  160.4222 C.ar    1  UNL1        0.0590
     21 C         143.4751  143.2556  161.6087 C.ar    1  UNL1        0.1402
     22 F         143.9231  144.4660  162.3730 F       1  UNL1       -0.2044
     23 C         142.5739  138.7633  170.1386 C.3     1  UNL1        0.0557
     24 C         142.6445  139.9687  169.2487 C.ar    1  UNL1        0.1008
     25 C         142.1599  140.0479  167.8314 C.ar    1  UNL1        0.0561
     26 C         142.4280  141.4347  167.3266 C.ar    1  UNL1        0.1809
     27 O         143.0784  142.2126  168.4319 O.2     1  UNL1       -0.3556
     28 N         143.2122  141.3066  169.6199 N.ar    1  UNL1       -0.0817
@<TRIPOS>BOND
     1    23    24    1
     2    24    25   ar
     3    25    26   ar
     4    26     1    1
     5     1     2    1
     6     3     2    1
     7     3     4    1
     8     4     5    1
     9     4     6    1
    10     6     7    1
    11     7     8    1
    12     7     9    2
    13     9    10    1
    14    10    15    1
    15    15    16   ar
    16    16    17   ar
    17    17    18   ar
    18    18    19    1
    19    18    20   ar
    20    20    21   ar
    21    21    22    1
    22    10    11    1
    23    11    12    1
    24    26    27   ar
    25    27    28   ar
    26    28    24   ar
    27    12     1    1
    28    10     3    1
    29    21    15   ar
    30     8    13    1
    31     8    14    1
@<TRIPOS>MOLECULE
*****
 28 31 0 0 0
SMALL
GASTEIGER

@<TRIPOS>ATOM
      1 C         140.8701  143.1954  163.9414 C.3     1  UNL1        0.1747
      2 C         141.6690  141.9845  163.5599 C.3     1  UNL1        0.0406
      3 C         142.1438  141.0350  164.6195 C.3     1  UNL1        0.0403
      4 C         142.9427  139.8240  164.2381 C.3     1  UNL1        0.0569
      5 C         143.2667  139.5627  162.7970 C.3     1  UNL1        0.0122
      6 S         143.4174  138.8744  165.2977 S.3     1  UNL1       -0.0816
      7 C         143.0933  139.1357  166.7388 C.2     1  UNL1        0.1482
      8 N         143.5682  138.1860  167.7984 N.pl3   1  UNL1       -0.3380
      9 N         142.2945  140.3466  167.1202 N.2     1  UNL1       -0.2484
     10 C         141.8197  141.2962  166.0606 C.3     1  UNL1        0.1352
     11 C         141.0208  142.5071  166.4421 C.3     1  UNL1        0.1691
     12 O         140.5461  143.4567  165.3825 O.3     1  UNL1       -0.3462
     13 H         144.0925  137.3913  167.5480 H       1  UNL1        0.1442
     14 H         143.3555  138.3575  168.7442 H       1  UNL1        0.1442
     15 C         141.4956  141.5575  167.5017 C.ar    1  UNL1        0.0278
     16 C         142.4341  142.3671  168.3466 C.ar    1  UNL1        0.0021
     17 C         142.1100  142.6284  169.7877 C.ar    1  UNL1        0.0295
     18 C         140.8474  142.0801  170.3838 C.ar    1  UNL1        0.1424
     19 F         140.5233  142.3414  171.8249 F       1  UNL1       -0.2041
     20 C         139.9090  141.2706  169.5389 C.ar    1  UNL1        0.0590
     21 C         140.2331  141.0093  168.0978 C.ar    1  UNL1        0.1402
     22 F         139.2946  140.1997  167.2529 F       1  UNL1       -0.2044
     23 C         140.3172  145.7032  159.3276 C.3     1  UNL1        0.0557
     24 C         140.1412  145.2977  160.7610 C.ar    1  UNL1        0.1008
     25 C         140.8872  144.2038  161.4659 C.ar    1  UNL1        0.0561
     26 C         140.3953  144.1451  162.8817 C.ar    1  UNL1        0.1809
     27 O         139.3453  145.2027  163.0519 O.2     1  UNL1       -0.3556
     28 N         139.1883  145.9151  161.7413 N.ar    1  UNL1       -0.0817
@<TRIPOS>BOND
     1    23    24    1
     2    24    25   ar
     3    25    26   ar
     4    26     1    1
     5     1     2    1
     6     3     2    1
     7     3     4    1
     8     4     5    1
     9     4     6    1
    10     6     7    1
    11     7     8    1
    12     7     9    2
    13     9    10    1
    14    10    15    1
    15    15    16   ar
    16    16    17   ar
    17    17    18   ar
    18    18    19    1
    19    18    20   ar
    20    20    21   ar
    21    21    22    1
    22    10    11    1
    23    11    12    1
    24    26    27   ar
    25    27    28   ar
    26    28    24   ar
    27    12     1    1
    28    10     3    1
    29    21    15   ar
    30     8    13    1
    31     8    14    1
@<TRIPOS>MOLECULE
*****
 28 31 0 0 0
SMALL
GASTEIGER

@<TRIPOS>ATOM
      1 C         140.2300  140.5329  166.4407 C.3     1  UNL1        0.1747
      2 C         139.7904  139.4519  165.4984 C.3     1  UNL1        0.0406
      3 C         139.4062  139.7954  164.0898 C.3     1  UNL1        0.0403
      4 C         138.9665  138.7143  163.1474 C.3     1  UNL1        0.0569
      5 C         138.9111  137.2897  163.6137 C.3     1  UNL1        0.0122
      6 S         138.5824  139.0578  161.7387 S.3     1  UNL1       -0.0816
      7 C         138.6378  140.4823  161.2724 C.2     1  UNL1        0.1482
      8 N         138.2536  140.8258  159.8636 N.pl3   1  UNL1       -0.3380
      9 N         139.0774  141.5634  162.2146 N.2     1  UNL1       -0.2484
     10 C         139.4616  141.2199  163.6234 C.3     1  UNL1        0.1352
     11 C         139.9012  142.3010  164.5657 C.3     1  UNL1        0.1691
     12 O         140.2854  141.9575  165.9743 O.3     1  UNL1       -0.3462
     13 H         137.9650  140.1162  159.2451 H       1  UNL1        0.1442
     14 H         138.2900  141.7608  159.5575 H       1  UNL1        0.1442
     15 C         139.5171  142.6445  163.1570 C.ar    1  UNL1        0.0278
     16 C         140.7822  143.1911  162.5646 C.ar    1  UNL1        0.0021
     17 C         140.8376  144.6156  162.0983 C.ar    1  UNL1        0.0295
     18 C         139.6279  145.4937  162.2243 C.ar    1  UNL1        0.1424
     19 F         139.6834  146.9183  161.7579 F       1  UNL1       -0.2041
     20 C         138.3629  144.9471  162.8166 C.ar    1  UNL1        0.0590
     21 C         138.3075  143.5225  163.2830 C.ar    1  UNL1        0.1402
     22 F         137.0425  142.9760  163.8754 F       1  UNL1       -0.2044
     23 C         143.0841  139.6554  170.7956 C.3     1  UNL1        0.0557
     24 C         141.9261  139.7861  169.8512 C.ar    1  UNL1        0.1008
     25 C         142.0060  140.1901  168.4088 C.ar    1  UNL1        0.0561
     26 C         140.6142  140.1895  167.8495 C.ar    1  UNL1        0.1809
     27 O         139.6741  139.7851  168.9461 O.2     1  UNL1       -0.3556
     28 N         140.4849  139.5358  170.1832 N.ar    1  UNL1       -0.0817
@<TRIPOS>BOND
     1    23    24    1
     2    24    25   ar
     3    25    26   ar
     4    26     1    1
     5     1     2    1
     6     3     2    1
     7     3     4    1
     8     4     5    1
     9     4     6    1
    10     6     7    1
    11     7     8    1
    12     7     9    2
    13     9    10    1
    14    10    15    1
    15    15    16   ar
    16    16    17   ar
    17    17    18   ar
    18    18    19    1
    19    18    20   ar
    20    20    21   ar
    21    21    22    1
    22    10    11    1
    23    11    12    1
    24    26    27   ar
    25    27    28   ar
    26    28    24   ar
    27    12     1    1
    28    10     3    1
    29    21    15   ar
    30     8    13    1
    31     8    14    1
@<TRIPOS>MOLECULE
*****
 28 31 0 0 0
SMALL
GASTEIGER

@<TRIPOS>ATOM
      1 C         142.1006  140.2611  166.3419 C.3     1  UNL1        0.1747
      2 C         140.8811  139.4107  166.1430 C.3     1  UNL1        0.0406
      3 C         140.4580  139.0183  164.7585 C.3     1  UNL1        0.0403
      4 C         139.2385  138.1678  164.5596 C.3     1  UNL1        0.0569
      5 C         138.4421  137.7097  165.7453 C.3     1  UNL1        0.0122
      6 S         138.8154  137.7755  163.1750 S.3     1  UNL1       -0.0816
      7 C         139.6118  138.2336  161.9893 C.2     1  UNL1        0.1482
      8 N         139.1887  137.8412  160.6047 N.pl3   1  UNL1       -0.3380
      9 N         140.8313  139.0841  162.1882 N.2     1  UNL1       -0.2484
     10 C         141.2544  139.4764  163.5728 C.3     1  UNL1        0.1352
     11 C         142.4739  140.3269  163.7717 C.3     1  UNL1        0.1691
     12 O         142.8970  140.7192  165.1562 O.3     1  UNL1       -0.3462
     13 H         138.3883  137.2830  160.4742 H       1  UNL1        0.1442
     14 H         139.7114  138.1419  159.8265 H       1  UNL1        0.1442
     15 C         142.0508  139.9346  162.3871 C.ar    1  UNL1        0.0278
     16 C         141.7536  141.2601  161.7508 C.ar    1  UNL1        0.0021
     17 C         142.5500  141.7182  160.5651 C.ar    1  UNL1        0.0295
     18 C         143.6436  140.8508  160.0157 C.ar    1  UNL1        0.1424
     19 F         144.4400  141.3089  158.8300 F       1  UNL1       -0.2041
     20 C         143.9408  139.5254  160.6520 C.ar    1  UNL1        0.0590
     21 C         143.1444  139.0673  161.8377 C.ar    1  UNL1        0.1402
     22 F         143.4415  137.7418  162.4740 F       1  UNL1       -0.2044
     23 C         143.2155  143.1394  170.6260 C.3     1  UNL1        0.0557
     24 C         143.0362  141.9766  169.6957 C.ar    1  UNL1        0.1008
     25 C         142.5481  142.0478  168.2791 C.ar    1  UNL1        0.0561
     26 C         142.5237  140.6535  167.7265 C.ar    1  UNL1        0.1809
     27 O         142.9967  139.7205  168.8016 O.2     1  UNL1       -0.3556
     28 N         143.3134  140.5381  170.0186 N.ar    1  UNL1       -0.0817
@<TRIPOS>BOND
     1    23    24    1
     2    24    25   ar
     3    25    26   ar
     4    26     1    1
     5     1     2    1
     6     3     2    1
     7     3     4    1
     8     4     5    1
     9     4     6    1
    10     6     7    1
    11     7     8    1
    12     7     9    2
    13     9    10    1
    14    10    15    1
    15    15    16   ar
    16    16    17   ar
    17    17    18   ar
    18    18    19    1
    19    18    20   ar
    20    20    21   ar
    21    21    22    1
    22    10    11    1
    23    11    12    1
    24    26    27   ar
    25    27    28   ar
    26    28    24   ar
    27    12     1    1
    28    10     3    1
    29    21    15   ar
    30     8    13    1
    31     8    14    1
@<TRIPOS>MOLECULE
*****
 28 31 0 0 0
SMALL
GASTEIGER

@<TRIPOS>ATOM
      1 C         140.1571  140.0083  166.6125 C.3     1  UNL1        0.1747
      2 C         141.5389  139.6274  166.1704 C.3     1  UNL1        0.0406
      3 C         141.8098  139.3350  164.7244 C.3     1  UNL1        0.0403
      4 C         143.1916  138.9541  164.2823 C.3     1  UNL1        0.0569
      5 C         144.3026  138.8657  165.2863 C.3     1  UNL1        0.0122
      6 S         143.4625  138.6617  162.8362 S.3     1  UNL1       -0.0816
      7 C         142.3516  138.7502  161.8323 C.2     1  UNL1        0.1482
      8 N         142.6225  138.4577  160.3861 N.pl3   1  UNL1       -0.3380
      9 N         140.9697  139.1310  162.2743 N.2     1  UNL1       -0.2484
     10 C         140.6988  139.4235  163.7204 C.3     1  UNL1        0.1352
     11 C         139.3170  139.8043  164.1625 C.3     1  UNL1        0.1691
     12 O         139.0461  140.0968  165.6085 O.3     1  UNL1       -0.3462
     13 H         143.5295  138.2077  160.0960 H       1  UNL1        0.1442
     14 H         141.8934  138.5158  159.7272 H       1  UNL1        0.1442
     15 C         139.5879  139.5119  162.7164 C.ar    1  UNL1        0.0278
     16 C         139.3598  140.7874  161.9606 C.ar    1  UNL1        0.0021
     17 C         138.2489  140.8759  160.9567 C.ar    1  UNL1        0.0295
     18 C         137.3660  139.6889  160.7085 C.ar    1  UNL1        0.1424
     19 F         136.2550  139.7773  159.7045 F       1  UNL1       -0.2041
     20 C         137.5941  138.4134  161.4643 C.ar    1  UNL1        0.0590
     21 C         138.7050  138.3250  162.4683 C.ar    1  UNL1        0.1402
     22 F         138.9331  137.0496  163.2240 F       1  UNL1       -0.2044
     23 C         140.3800  142.1642  171.4274 C.3     1  UNL1        0.0557
     24 C         139.9887  141.2917  170.2718 C.ar    1  UNL1        0.1008
     25 C         140.5673  141.3479  168.8890 C.ar    1  UNL1        0.0561
     26 C         139.8861  140.3007  168.0586 C.ar    1  UNL1        0.1809
     27 O         138.8865  139.5974  168.9281 O.2     1  UNL1       -0.3556
     28 N         138.9499  140.2098  170.2959 N.ar    1  UNL1       -0.0817
@<TRIPOS>BOND
     1    23    24    1
     2    24    25   ar
     3    25    26   ar
     4    26     1    1
     5     1     2    1
     6     3     2    1
     7     3     4    1
     8     4     5    1
     9     4     6    1
    10     6     7    1
    11     7     8    1
    12     7     9    2
    13     9    10    1
    14    10    15    1
    15    15    16   ar
    16    16    17   ar
    17    17    18   ar
    18    18    19    1
    19    18    20   ar
    20    20    21   ar
    21    21    22    1
    22    10    11    1
    23    11    12    1
    24    26    27   ar
    25    27    28   ar
    26    28    24   ar
    27    12     1    1
    28    10     3    1
    29    21    15   ar
    30     8    13    1
    31     8    14    1
@<TRIPOS>MOLECULE
*****
 28 31 0 0 0
SMALL
GASTEIGER

@<TRIPOS>ATOM
      1 C         142.3795  141.2725  166.3411 C.3     1  UNL1        0.1747
      2 C         143.5331  141.4230  165.3943 C.3     1  UNL1        0.0406
      3 C         143.3978  140.9729  163.9698 C.3     1  UNL1        0.0403
      4 C         144.5514  141.1234  163.0229 C.3     1  UNL1        0.0569
      5 C         145.8403  141.7240  163.5005 C.3     1  UNL1        0.0122
      6 S         144.4161  140.6734  161.5984 S.3     1  UNL1       -0.0816
      7 C         143.1272  140.0728  161.1208 C.2     1  UNL1        0.1482
      8 N         142.9920  139.6227  159.6963 N.pl3   1  UNL1       -0.3380
      9 N         141.9736  139.9223  162.0677 N.2     1  UNL1       -0.2484
     10 C         142.1089  140.3724  163.4922 C.3     1  UNL1        0.1352
     11 C         140.9553  140.2219  164.4391 C.3     1  UNL1        0.1691
     12 O         141.0906  140.6719  165.8635 O.3     1  UNL1       -0.3462
     13 H         143.7491  139.7215  159.0749 H       1  UNL1        0.1442
     14 H         142.1460  139.2285  159.3828 H       1  UNL1        0.1442
     15 C         140.8200  139.7718  163.0146 C.ar    1  UNL1        0.0278
     16 C         139.7421  140.6543  162.4584 C.ar    1  UNL1        0.0021
     17 C         138.4532  140.0537  161.9808 C.ar    1  UNL1        0.0295
     18 C         138.2423  138.5706  162.0594 C.ar    1  UNL1        0.1424
     19 F         136.9534  137.9700  161.5818 F       1  UNL1       -0.2041
     20 C         139.3202  137.6882  162.6157 C.ar    1  UNL1        0.0590
     21 C         140.6091  138.2888  163.0933 C.ar    1  UNL1        0.1402
     22 F         141.6870  137.4064  163.6495 F       1  UNL1       -0.2044
     23 C         141.4913  141.9369  171.5036 C.3     1  UNL1        0.0557
     24 C         142.1065  142.0280  170.1386 C.ar    1  UNL1        0.1008
     25 C         141.5970  141.3607  168.8955 C.ar    1  UNL1        0.0561
     26 C         142.5148  141.7226  167.7656 C.ar    1  UNL1        0.1809
     27 O         143.5915  142.6136  168.3103 O.2     1  UNL1       -0.3556
     28 N         143.3392  142.8023  169.7768 N.ar    1  UNL1       -0.0817
@<TRIPOS>BOND
     1    23    24    1
     2    24    25   ar
     3    25    26   ar
     4    26     1    1
     5     1     2    1
     6     3     2    1
     7     3     4    1
     8     4     5    1
     9     4     6    1
    10     6     7    1
    11     7     8    1
    12     7     9    2
    13     9    10    1
    14    10    15    1
    15    15    16   ar
    16    16    17   ar
    17    17    18   ar
    18    18    19    1
    19    18    20   ar
    20    20    21   ar
    21    21    22    1
    22    10    11    1
    23    11    12    1
    24    26    27   ar
    25    27    28   ar
    26    28    24   ar
    27    12     1    1
    28    10     3    1
    29    21    15   ar
    30     8    13    1
    31     8    14    1
@<TRIPOS>MOLECULE
*****
 28 31 0 0 0
SMALL
GASTEIGER

@<TRIPOS>ATOM
      1 C         142.3661  141.5741  163.5383 C.3     1  UNL1        0.1747
      2 C         141.1695  140.6863  163.3653 C.3     1  UNL1        0.0406
      3 C         140.3755  140.2560  164.5630 C.3     1  UNL1        0.0403
      4 C         139.1788  139.3682  164.3900 C.3     1  UNL1        0.0569
      5 C         138.7762  138.9107  163.0194 C.3     1  UNL1        0.0122
      6 S         138.3849  138.9378  165.5876 S.3     1  UNL1       -0.0816
      7 C         138.7875  139.3953  166.9583 C.2     1  UNL1        0.1482
      8 N         137.9934  138.9649  168.1559 N.pl3   1  UNL1       -0.3380
      9 N         139.9841  140.2831  167.1313 N.2     1  UNL1       -0.2484
     10 C         140.7781  140.7134  165.9336 C.3     1  UNL1        0.1352
     11 C         141.9747  141.6012  166.1066 C.3     1  UNL1        0.1691
     12 O         142.7687  142.0315  164.9090 O.3     1  UNL1       -0.3462
     13 H         137.2080  138.3822  168.0424 H       1  UNL1        0.1442
     14 H         138.2576  139.2652  169.0555 H       1  UNL1        0.1442
     15 C         141.1807  141.1709  167.3042 C.ar    1  UNL1        0.0278
     16 C         140.6363  142.4550  167.8564 C.ar    1  UNL1        0.0021
     17 C         141.0389  142.9124  169.2270 C.ar    1  UNL1        0.0295
     18 C         141.9859  142.0858  170.0455 C.ar    1  UNL1        0.1424
     19 F         142.3885  142.5433  171.4161 F       1  UNL1       -0.2041
     20 C         142.5303  140.8018  169.4933 C.ar    1  UNL1        0.0590
     21 C         142.1277  140.3443  168.1227 C.ar    1  UNL1        0.1402
     22 F         142.6721  139.0603  167.5706 F       1  UNL1       -0.2044
     23 C         143.6572  143.0618  158.6393 C.3     1  UNL1        0.0557
     24 C         143.7536  142.6883  160.0888 C.ar    1  UNL1        0.1008
     25 C         142.6101  142.2924  160.9752 C.ar    1  UNL1        0.0561
     26 C         143.1601  142.0044  162.3407 C.ar    1  UNL1        0.1809
     27 O         144.6436  142.2224  162.2982 O.2     1  UNL1       -0.3556
     28 N         145.0104  142.6451  160.9065 N.ar    1  UNL1       -0.0817
@<TRIPOS>BOND
     1    23    24    1
     2    24    25   ar
     3    25    26   ar
     4    26     1    1
     5     1     2    1
     6     3     2    1
     7     3     4    1
     8     4     5    1
     9     4     6    1
    10     6     7    1
    11     7     8    1
    12     7     9    2
    13     9    10    1
    14    10    15    1
    15    15    16   ar
    16    16    17   ar
    17    17    18   ar
    18    18    19    1
    19    18    20   ar
    20    20    21   ar
    21    21    22    1
    22    10    11    1
    23    11    12    1
    24    26    27   ar
    25    27    28   ar
    26    28    24   ar
    27    12     1    1
    28    10     3    1
    29    21    15   ar
    30     8    13    1
    31     8    14    1
