@<TRIPOS>MOLECULE
*****
 41 45 0 0 0
SMALL
GASTEIGER

@<TRIPOS>ATOM
      1 C         141.2326  139.5877  159.7788 C.3     1  UNL1        0.0765
      2 C         140.7764  140.5549  158.7270 C.3     1  UNL1        0.0246
      3 C         141.0290  140.2612  157.2779 C.3     1  UNL1        0.0277
      4 C         141.7380  139.0004  156.8806 C.ar    1  UNL1       -0.0258
      5 C         141.9906  138.7068  155.4315 C.ar    1  UNL1       -0.0014
      6 C         142.6995  137.4460  155.0342 C.ar    1  UNL1        0.0371
      7 C         143.1558  136.4788  156.0862 C.ar    1  UNL1        0.1450
      8 C         142.9031  136.7725  157.5352 C.ar    1  UNL1        0.0330
      9 C         142.1942  138.0333  157.9325 C.ar    1  UNL1       -0.0215
     10 C         141.9415  138.3269  159.3816 C.3     1  UNL1        0.0457
     11 C         139.8018  139.2664  161.9235 C.2     1  UNL1        0.2458
     12 O         138.8763  138.3579  161.1699 O.2     1  UNL1       -0.2701
     13 N         140.9799  139.8814  161.2280 N.am    1  UNL1       -0.3021
     14 H         141.5874  140.4777  161.7226 H       1  UNL1        0.1497
     15 C         139.7469  141.1567  165.4126 C.ar    1  UNL1       -0.0060
     16 C         139.9996  140.8631  163.9635 C.ar    1  UNL1        0.0016
     17 C         139.5491  139.5601  163.3727 C.ar    1  UNL1        0.0530
     18 C         138.8460  138.5506  164.2309 C.ar    1  UNL1        0.0083
     19 C         138.5933  138.8442  165.6800 C.ar    1  UNL1        0.0713
     20 C         139.0438  140.1472  166.2708 C.ar    1  UNL1        0.0009
     21 C         137.8902  137.8347  166.5383 C.3     1  UNL1        0.4186
     22 F         137.1871  136.8252  167.3965 F       1  UNL1       -0.1659
     23 F         137.3983  138.9357  167.4303 F       1  UNL1       -0.1659
     24 F         138.3821  136.7337  165.6462 F       1  UNL1       -0.1659
     25 C         140.1973  142.4598  166.0035 C.3     1  UNL1        0.0992
     26 C         142.5435  142.0723  167.0500 C.3     1  UNL1        0.0899
     27 N         141.1043  142.4678  167.1983 N.3     1  UNL1       -0.2665
     28 C         140.5718  142.8714  168.5413 C.3     1  UNL1        0.0899
     29 O         143.8647  135.2180  155.6889 O.3     1  UNL1       -0.4537
     30 C         143.1080  133.9252  155.6098 C.ar    1  UNL1        0.1455
     31 C         141.8954  133.8184  154.7334 C.ar    1  UNL1        0.0579
     32 C         141.1387  132.5256  154.6543 C.ar    1  UNL1        0.1034
     33 N         141.5947  131.3397  155.4515 N.ar    1  UNL1       -0.2291
     34 C         142.8075  131.4465  156.3278 C.ar    1  UNL1        0.1330
     35 C         143.5641  132.7393  156.4070 C.ar    1  UNL1        0.0445
     36 C         144.7768  132.8461  157.2833 C.3     1  UNL1        0.0419
     37 C         145.2329  131.6602  158.0805 C.3     1  UNL1        0.0903
     38 C         144.4762  130.3674  158.0014 C.2     1  UNL1        0.2275
     39 O         144.9323  129.1814  158.7986 O.2     1  UNL1       -0.2747
     40 N         143.2636  130.2606  157.1250 N.am    1  UNL1       -0.2695
     41 H         142.7670  129.4121  157.0731 H       1  UNL1        0.1562
@<TRIPOS>BOND
     1    26    27    1
     2    27    28    1
     3    27    25    1
     4    25    15    1
     5    15    16   ar
     6    16    17   ar
     7    17    11    1
     8    11    12    2
     9    11    13   am
    10     1    13    1
    11     1     2    1
    12     2     3    1
    13     3     4    1
    14     4     5   ar
    15     5     6   ar
    16     6     7   ar
    17     7    29    1
    18    29    30    1
    19    30    31   ar
    20    31    32   ar
    21    32    33   ar
    22    33    34   ar
    23    34    35   ar
    24    35    36    1
    25    36    37    1
    26    37    38    1
    27    38    39    2
    28    38    40   am
    29     7     8   ar
    30     8     9   ar
    31     9    10    1
    32    17    18   ar
    33    18    19   ar
    34    19    21    1
    35    21    22    1
    36    21    23    1
    37    21    24    1
    38    19    20   ar
    39    20    15   ar
    40    10     1    1
    41     9     4   ar
    42    35    30   ar
    43    40    34    1
    44    13    14    1
    45    40    41    1
@<TRIPOS>MOLECULE
*****
 41 45 0 0 0
SMALL
GASTEIGER

@<TRIPOS>ATOM
      1 C         141.3089  139.5503  159.4625 C.3     1  UNL1        0.0765
      2 C         140.8756  140.5131  158.3971 C.3     1  UNL1        0.0246
      3 C         141.1268  140.1962  156.9527 C.3     1  UNL1        0.0277
      4 C         141.8115  138.9165  156.5737 C.ar    1  UNL1       -0.0258
      5 C         142.0627  138.5995  155.1292 C.ar    1  UNL1       -0.0014
      6 C         142.7474  137.3198  154.7503 C.ar    1  UNL1        0.0371
      7 C         143.1807  136.3570  155.8158 C.ar    1  UNL1        0.1450
      8 C         142.9294  136.6740  157.2602 C.ar    1  UNL1        0.0330
      9 C         142.2448  137.9537  157.6392 C.ar    1  UNL1       -0.0215
     10 C         141.9935  138.2706  159.0836 C.3     1  UNL1        0.0457
     11 C         139.8586  139.2946  161.6029 C.2     1  UNL1        0.2458
     12 O         138.9108  138.4050  160.8544 O.2     1  UNL1       -0.2701
     13 N         141.0576  139.8673  160.9070 N.am    1  UNL1       -0.3021
     14 H         141.6797  140.4511  161.3983 H       1  UNL1        0.1497
     15 C         139.7743  141.2553  165.0523 C.ar    1  UNL1       -0.0060
     16 C         140.0256  140.9385  163.6079 C.ar    1  UNL1        0.0016
     17 C         139.6073  139.6115  163.0474 C.ar    1  UNL1        0.0530
     18 C         138.9378  138.6014  163.9314 C.ar    1  UNL1        0.0083
     19 C         138.6865  138.9182  165.3758 C.ar    1  UNL1        0.0713
     20 C         139.1048  140.2452  165.9363 C.ar    1  UNL1        0.0009
     21 C         138.0170  137.9081  166.2598 C.3     1  UNL1        0.4186
     22 F         137.3474  136.8980  167.1437 F       1  UNL1       -0.1659
     23 F         138.6148  136.7993  165.4455 F       1  UNL1       -0.1659
     24 F         137.4191  139.0170  167.0740 F       1  UNL1       -0.1659
     25 C         140.1926  142.5823  165.6129 C.3     1  UNL1        0.0992
     26 C         140.8329  144.5826  164.0835 C.3     1  UNL1        0.0899
     27 N         139.8139  143.8489  164.9040 N.3     1  UNL1       -0.2665
     28 C         138.4161  144.3817  165.0157 C.3     1  UNL1        0.0899
     29 O         143.8653  135.0773  155.4368 O.3     1  UNL1       -0.4537
     30 C         143.0890  133.7943  155.3982 C.ar    1  UNL1        0.1455
     31 C         141.8880  133.6709  154.5081 C.ar    1  UNL1        0.0579
     32 C         141.1117  132.3880  154.4695 C.ar    1  UNL1        0.1034
     33 N         141.5365  131.2284  155.3210 N.ar    1  UNL1       -0.2291
     34 C         142.7375  131.3519  156.2112 C.ar    1  UNL1        0.1330
     35 C         143.5138  132.6348  156.2498 C.ar    1  UNL1        0.0445
     36 C         144.7148  132.7583  157.1399 C.3     1  UNL1        0.0419
     37 C         145.1396  131.5988  157.9915 C.3     1  UNL1        0.0903
     38 C         144.3632  130.3158  157.9529 C.2     1  UNL1        0.2275
     39 O         144.7880  129.1563  158.8044 O.2     1  UNL1       -0.2747
     40 N         143.1623  130.1924  157.0627 N.am    1  UNL1       -0.2695
     41 H         142.6528  129.3504  157.0374 H       1  UNL1        0.1562
@<TRIPOS>BOND
     1    26    27    1
     2    27    28    1
     3    27    25    1
     4    25    15    1
     5    15    16   ar
     6    16    17   ar
     7    17    11    1
     8    11    12    2
     9    11    13   am
    10     1    13    1
    11     1     2    1
    12     2     3    1
    13     3     4    1
    14     4     5   ar
    15     5     6   ar
    16     6     7   ar
    17     7    29    1
    18    29    30    1
    19    30    31   ar
    20    31    32   ar
    21    32    33   ar
    22    33    34   ar
    23    34    35   ar
    24    35    36    1
    25    36    37    1
    26    37    38    1
    27    38    39    2
    28    38    40   am
    29     7     8   ar
    30     8     9   ar
    31     9    10    1
    32    17    18   ar
    33    18    19   ar
    34    19    21    1
    35    21    22    1
    36    21    23    1
    37    21    24    1
    38    19    20   ar
    39    20    15   ar
    40    10     1    1
    41     9     4   ar
    42    35    30   ar
    43    40    34    1
    44    13    14    1
    45    40    41    1
@<TRIPOS>MOLECULE
*****
 41 45 0 0 0
SMALL
GASTEIGER

@<TRIPOS>ATOM
      1 C         141.2887  144.9933  160.4402 C.3     1  UNL1        0.0765
      2 C         140.0680  145.7902  160.7934 C.3     1  UNL1        0.0246
      3 C         139.4729  145.6819  162.1660 C.3     1  UNL1        0.0277
      4 C         140.0986  144.7768  163.1854 C.ar    1  UNL1       -0.0258
      5 C         139.5034  144.6685  164.5581 C.ar    1  UNL1       -0.0014
      6 C         140.1291  143.7634  165.5776 C.ar    1  UNL1        0.0371
      7 C         141.3499  142.9665  165.2244 C.ar    1  UNL1        0.1450
      8 C         141.9449  143.0748  163.8517 C.ar    1  UNL1        0.0330
      9 C         141.3193  143.9799  162.8323 C.ar    1  UNL1       -0.0215
     10 C         141.9144  144.0882  161.4597 C.3     1  UNL1        0.0457
     11 C         141.5682  144.0658  158.0294 C.2     1  UNL1        0.2458
     12 O         140.6574  142.9219  158.3639 O.2     1  UNL1       -0.2701
     13 N         141.8838  145.1015  159.0675 N.am    1  UNL1       -0.3021
     14 H         142.4816  145.8523  158.8480 H       1  UNL1        0.1497
     15 C         143.9253  143.4206  154.9025 C.ar    1  UNL1       -0.0060
     16 C         143.3302  143.3123  156.2751 C.ar    1  UNL1        0.0016
     17 C         142.1633  144.1741  156.6567 C.ar    1  UNL1        0.0530
     18 C         141.5915  145.1441  155.6657 C.ar    1  UNL1        0.0083
     19 C         142.1866  145.2524  154.2931 C.ar    1  UNL1        0.0713
     20 C         143.3535  144.3906  153.9115 C.ar    1  UNL1        0.0009
     21 C         141.6148  146.2224  153.3021 C.3     1  UNL1        0.4186
     22 F         141.0430  147.1924  152.3111 F       1  UNL1       -0.1659
     23 F         140.2520  146.0276  153.8978 F       1  UNL1       -0.1659
     24 F         142.9776  146.4172  152.7064 F       1  UNL1       -0.1659
     25 C         145.0922  142.5588  154.5208 C.3     1  UNL1        0.0992
     26 C         145.2421  140.2621  155.7261 C.3     1  UNL1        0.0899
     27 N         145.7327  141.6677  155.5435 N.3     1  UNL1       -0.2665
     28 C         146.8639  142.1824  156.3836 C.3     1  UNL1        0.0899
     29 O         141.9755  142.0614  166.2438 O.3     1  UNL1       -0.4537
     30 C         141.2353  141.7272  167.5050 C.ar    1  UNL1        0.1455
     31 C         141.6052  142.4014  168.7928 C.ar    1  UNL1        0.0579
     32 C         140.8649  142.0673  170.0540 C.ar    1  UNL1        0.1034
     33 N         139.7547  141.0589  170.0272 N.ar    1  UNL1       -0.2291
     34 C         139.3848  140.3847  168.7393 C.ar    1  UNL1        0.1330
     35 C         140.1251  140.7189  167.4782 C.ar    1  UNL1        0.0445
     36 C         139.7552  140.0447  166.1903 C.3     1  UNL1        0.0419
     37 C         138.6450  139.0363  166.1635 C.3     1  UNL1        0.0903
     38 C         137.9047  138.7021  167.4247 C.2     1  UNL1        0.2275
     39 O         136.7946  137.6938  167.3979 O.2     1  UNL1       -0.2747
     40 N         138.2747  139.3763  168.7125 N.am    1  UNL1       -0.2695
     41 H         137.7888  139.1570  169.5402 H       1  UNL1        0.1562
@<TRIPOS>BOND
     1    26    27    1
     2    27    28    1
     3    27    25    1
     4    25    15    1
     5    15    16   ar
     6    16    17   ar
     7    17    11    1
     8    11    12    2
     9    11    13   am
    10     1    13    1
    11     1     2    1
    12     2     3    1
    13     3     4    1
    14     4     5   ar
    15     5     6   ar
    16     6     7   ar
    17     7    29    1
    18    29    30    1
    19    30    31   ar
    20    31    32   ar
    21    32    33   ar
    22    33    34   ar
    23    34    35   ar
    24    35    36    1
    25    36    37    1
    26    37    38    1
    27    38    39    2
    28    38    40   am
    29     7     8   ar
    30     8     9   ar
    31     9    10    1
    32    17    18   ar
    33    18    19   ar
    34    19    21    1
    35    21    22    1
    36    21    23    1
    37    21    24    1
    38    19    20   ar
    39    20    15   ar
    40    10     1    1
    41     9     4   ar
    42    35    30   ar
    43    40    34    1
    44    13    14    1
    45    40    41    1
@<TRIPOS>MOLECULE
*****
 41 45 0 0 0
SMALL
GASTEIGER

@<TRIPOS>ATOM
      1 C         142.9508  140.9118  161.9445 C.3     1  UNL1        0.0765
      2 C         143.7247  142.1904  161.8182 C.3     1  UNL1        0.0246
      3 C         144.3217  142.5784  160.4980 C.3     1  UNL1        0.0277
      4 C         144.1446  141.6878  159.3041 C.ar    1  UNL1       -0.0258
      5 C         144.7416  142.0759  157.9838 C.ar    1  UNL1       -0.0014
      6 C         144.5645  141.1853  156.7898 C.ar    1  UNL1        0.0371
      7 C         143.7905  139.9066  156.9162 C.ar    1  UNL1        0.1450
      8 C         143.1936  139.5185  158.2364 C.ar    1  UNL1        0.0330
      9 C         143.3706  140.4092  159.4304 C.ar    1  UNL1       -0.0215
     10 C         142.7737  140.0211  160.7506 C.3     1  UNL1        0.0457
     11 C         141.0977  141.1885  163.7444 C.2     1  UNL1        0.2458
     12 O         140.4385  142.2415  162.9038 O.2     1  UNL1       -0.2701
     13 N         142.3538  140.5237  163.2648 N.am    1  UNL1       -0.3021
     14 H         142.7865  139.8326  163.8166 H       1  UNL1        0.1497
     15 C         140.2112  141.2173  167.6126 C.ar    1  UNL1       -0.0060
     16 C         140.8082  141.6054  166.2925 C.ar    1  UNL1        0.0016
     17 C         140.5007  140.8005  165.0647 C.ar    1  UNL1        0.0530
     18 C         139.5963  139.6074  165.1572 C.ar    1  UNL1        0.0083
     19 C         138.9993  139.2192  166.4774 C.ar    1  UNL1        0.0713
     20 C         139.3068  140.0242  167.7051 C.ar    1  UNL1        0.0009
     21 C         138.0949  138.0261  166.5698 C.3     1  UNL1        0.4186
     22 F         137.1905  136.8330  166.6622 F       1  UNL1       -0.1659
     23 F         137.3564  138.6738  167.7034 F       1  UNL1       -0.1659
     24 F         138.8334  137.3785  165.4362 F       1  UNL1       -0.1659
     25 C         140.5186  142.0223  168.8405 C.3     1  UNL1        0.0992
     26 C         143.0841  142.2657  169.1707 C.3     1  UNL1        0.0899
     27 N         141.7592  141.7363  169.6337 N.3     1  UNL1       -0.2665
     28 C         141.6749  140.9207  170.8898 C.3     1  UNL1        0.0899
     29 O         143.6135  139.0160  155.7223 O.3     1  UNL1       -0.4537
     30 C         142.3476  138.2287  155.5550 C.ar    1  UNL1        0.1455
     31 C         141.0618  138.9340  155.2405 C.ar    1  UNL1        0.0579
     32 C         139.7959  138.1468  155.0732 C.ar    1  UNL1        0.1034
     33 N         139.8160  136.6541  155.2204 N.ar    1  UNL1       -0.2291
     34 C         141.1020  135.9488  155.5349 C.ar    1  UNL1        0.1330
     35 C         142.3678  136.7361  155.7022 C.ar    1  UNL1        0.0445
     36 C         143.6537  136.0307  156.0167 C.3     1  UNL1        0.0419
     37 C         143.6739  134.5381  156.1638 C.3     1  UNL1        0.0903
     38 C         142.4080  133.7508  155.9966 C.2     1  UNL1        0.2275
     39 O         142.4281  132.2582  156.1437 O.2     1  UNL1       -0.2747
     40 N         141.1221  134.4562  155.6821 N.am    1  UNL1       -0.2695
     41 H         140.2913  133.9395  155.5723 H       1  UNL1        0.1562
@<TRIPOS>BOND
     1    26    27    1
     2    27    28    1
     3    27    25    1
     4    25    15    1
     5    15    16   ar
     6    16    17   ar
     7    17    11    1
     8    11    12    2
     9    11    13   am
    10     1    13    1
    11     1     2    1
    12     2     3    1
    13     3     4    1
    14     4     5   ar
    15     5     6   ar
    16     6     7   ar
    17     7    29    1
    18    29    30    1
    19    30    31   ar
    20    31    32   ar
    21    32    33   ar
    22    33    34   ar
    23    34    35   ar
    24    35    36    1
    25    36    37    1
    26    37    38    1
    27    38    39    2
    28    38    40   am
    29     7     8   ar
    30     8     9   ar
    31     9    10    1
    32    17    18   ar
    33    18    19   ar
    34    19    21    1
    35    21    22    1
    36    21    23    1
    37    21    24    1
    38    19    20   ar
    39    20    15   ar
    40    10     1    1
    41     9     4   ar
    42    35    30   ar
    43    40    34    1
    44    13    14    1
    45    40    41    1
@<TRIPOS>MOLECULE
*****
 41 45 0 0 0
SMALL
GASTEIGER

@<TRIPOS>ATOM
      1 C         141.5227  142.9734  161.6623 C.3     1  UNL1        0.0765
      2 C         142.9410  142.7518  161.2274 C.3     1  UNL1        0.0246
      3 C         143.3634  143.1126  159.8341 C.3     1  UNL1        0.0277
      4 C         142.3673  143.6949  158.8756 C.ar    1  UNL1       -0.0258
      5 C         142.7897  144.0557  157.4822 C.ar    1  UNL1       -0.0014
      6 C         141.7937  144.6381  156.5237 C.ar    1  UNL1        0.0371
      7 C         140.3752  144.8597  156.9586 C.ar    1  UNL1        0.1450
      8 C         139.9529  144.4989  158.3519 C.ar    1  UNL1        0.0330
      9 C         140.9490  143.9165  159.3104 C.ar    1  UNL1       -0.0215
     10 C         140.5266  143.5558  160.7037 C.3     1  UNL1        0.0457
     11 C         140.5843  141.2353  163.3500 C.2     1  UNL1        0.2458
     12 O         140.4907  140.2187  162.2511 O.2     1  UNL1       -0.2701
     13 N         141.1003  142.6126  163.0557 N.am    1  UNL1       -0.3021
     14 H         141.1617  143.2798  163.7770 H       1  UNL1        0.1497
     15 C         140.1434  141.3819  167.2914 C.ar    1  UNL1       -0.0060
     16 C         140.5658  141.7427  165.8981 C.ar    1  UNL1        0.0016
     17 C         140.1620  140.8745  164.7435 C.ar    1  UNL1        0.0530
     18 C         139.3357  139.6455  164.9822 C.ar    1  UNL1        0.0083
     19 C         138.9134  139.2847  166.3755 C.ar    1  UNL1        0.0713
     20 C         139.3172  140.1529  167.5301 C.ar    1  UNL1        0.0009
     21 C         138.0871  138.0557  166.6142 C.3     1  UNL1        0.4186
     22 F         137.2609  136.8268  166.8529 F       1  UNL1       -0.1659
     23 F         137.3291  138.7744  167.6907 F       1  UNL1       -0.1659
     24 F         138.8451  137.3370  165.5377 F       1  UNL1       -0.1659
     25 C         140.5472  142.2501  168.4461 C.3     1  UNL1        0.0992
     26 C         142.6264  140.7488  168.8620 C.3     1  UNL1        0.0899
     27 N         141.8336  141.9842  169.1703 N.3     1  UNL1       -0.2665
     28 C         142.3272  142.9540  170.2029 C.3     1  UNL1        0.0899
     29 O         139.3792  145.4421  156.0000 O.3     1  UNL1       -0.4537
     30 C         139.8294  146.4116  154.9476 C.ar    1  UNL1        0.1455
     31 C         140.6105  145.9240  153.7636 C.ar    1  UNL1        0.0579
     32 C         141.0607  146.8935  152.7112 C.ar    1  UNL1        0.1034
     33 N         140.7296  148.3506  152.8429 N.ar    1  UNL1       -0.2291
     34 C         139.9484  148.8381  154.0270 C.ar    1  UNL1        0.1330
     35 C         139.4983  147.8686  155.0793 C.ar    1  UNL1        0.0445
     36 C         138.7171  148.3562  156.2635 C.3     1  UNL1        0.0419
     37 C         138.3861  149.8133  156.3952 C.3     1  UNL1        0.0903
     38 C         138.8362  150.7828  155.3428 C.2     1  UNL1        0.2275
     39 O         138.5052  152.2399  155.4745 O.2     1  UNL1       -0.2747
     40 N         139.6174  150.2952  154.1587 N.am    1  UNL1       -0.2695
     41 H         139.9128  150.9315  153.4680 H       1  UNL1        0.1562
@<TRIPOS>BOND
     1    26    27    1
     2    27    28    1
     3    27    25    1
     4    25    15    1
     5    15    16   ar
     6    16    17   ar
     7    17    11    1
     8    11    12    2
     9    11    13   am
    10     1    13    1
    11     1     2    1
    12     2     3    1
    13     3     4    1
    14     4     5   ar
    15     5     6   ar
    16     6     7   ar
    17     7    29    1
    18    29    30    1
    19    30    31   ar
    20    31    32   ar
    21    32    33   ar
    22    33    34   ar
    23    34    35   ar
    24    35    36    1
    25    36    37    1
    26    37    38    1
    27    38    39    2
    28    38    40   am
    29     7     8   ar
    30     8     9   ar
    31     9    10    1
    32    17    18   ar
    33    18    19   ar
    34    19    21    1
    35    21    22    1
    36    21    23    1
    37    21    24    1
    38    19    20   ar
    39    20    15   ar
    40    10     1    1
    41     9     4   ar
    42    35    30   ar
    43    40    34    1
    44    13    14    1
    45    40    41    1
@<TRIPOS>MOLECULE
*****
 41 45 0 0 0
SMALL
GASTEIGER

@<TRIPOS>ATOM
      1 C         141.5218  139.4012  159.8597 C.3     1  UNL1        0.0765
      2 C         140.1706  139.7617  159.3173 C.3     1  UNL1        0.0246
      3 C         139.6465  139.0739  158.0917 C.3     1  UNL1        0.0277
      4 C         140.4737  138.0256  157.4084 C.ar    1  UNL1       -0.0258
      5 C         139.9496  137.3377  156.1827 C.ar    1  UNL1       -0.0014
      6 C         140.7768  136.2894  155.4995 C.ar    1  UNL1        0.0371
      7 C         142.1281  135.9290  156.0419 C.ar    1  UNL1        0.1450
      8 C         142.6521  136.6168  157.2675 C.ar    1  UNL1        0.0330
      9 C         141.8249  137.6651  157.9508 C.ar    1  UNL1       -0.0215
     10 C         142.3490  138.3529  159.1764 C.3     1  UNL1        0.0457
     11 C         141.6501  139.6000  162.4470 C.2     1  UNL1        0.2458
     12 O         140.7302  138.4230  162.5830 O.2     1  UNL1       -0.2701
     13 N         142.0459  140.0891  161.0854 N.am    1  UNL1       -0.3021
     14 H         142.6497  140.8615  160.9961 H       1  UNL1        0.1497
     15 C         142.7372  140.2467  166.2086 C.ar    1  UNL1       -0.0060
     16 C         142.2131  139.5588  164.9830 C.ar    1  UNL1        0.0016
     17 C         142.1742  140.2878  163.6727 C.ar    1  UNL1        0.0530
     18 C         142.6595  141.7046  163.5879 C.ar    1  UNL1        0.0083
     19 C         143.1836  142.3925  164.8135 C.ar    1  UNL1        0.0713
     20 C         143.2225  141.6635  166.1239 C.ar    1  UNL1        0.0009
     21 C         143.6688  143.8093  164.7288 C.3     1  UNL1        0.4186
     22 F         144.1540  145.2261  164.6440 F       1  UNL1       -0.1659
     23 F         144.8602  143.4514  165.5669 F       1  UNL1       -0.1659
     24 F         142.4773  144.1672  163.8907 F       1  UNL1       -0.1659
     25 C         142.7762  139.5177  167.5190 C.3     1  UNL1        0.0992
     26 C         140.5640  140.1315  168.7355 C.3     1  UNL1        0.0899
     27 N         142.0630  140.0813  168.7122 N.3     1  UNL1       -0.2665
     28 C         142.8488  140.5948  169.8823 C.3     1  UNL1        0.0899
     29 O         142.9552  134.8807  155.3586 O.3     1  UNL1       -0.4537
     30 C         142.5038  133.4502  155.3603 C.ar    1  UNL1        0.1455
     31 C         141.3570  133.0246  154.4921 C.ar    1  UNL1        0.0579
     32 C         140.9055  131.5941  154.4937 C.ar    1  UNL1        0.1034
     33 N         141.6009  130.5893  155.3636 N.ar    1  UNL1       -0.2291
     34 C         142.7477  131.0149  156.2319 C.ar    1  UNL1        0.1330
     35 C         143.1991  132.4453  156.2302 C.ar    1  UNL1        0.0445
     36 C         144.3459  132.8709  157.0984 C.3     1  UNL1        0.0419
     37 C         145.0413  131.8661  157.9683 C.3     1  UNL1        0.0903
     38 C         144.5898  130.4356  157.9699 C.2     1  UNL1        0.2275
     39 O         145.2852  129.4307  158.8398 O.2     1  UNL1       -0.2747
     40 N         143.4431  130.0100  157.1017 N.am    1  UNL1       -0.2695
     41 H         143.1468  129.0711  157.1028 H       1  UNL1        0.1562
@<TRIPOS>BOND
     1    26    27    1
     2    27    28    1
     3    27    25    1
     4    25    15    1
     5    15    16   ar
     6    16    17   ar
     7    17    11    1
     8    11    12    2
     9    11    13   am
    10     1    13    1
    11     1     2    1
    12     2     3    1
    13     3     4    1
    14     4     5   ar
    15     5     6   ar
    16     6     7   ar
    17     7    29    1
    18    29    30    1
    19    30    31   ar
    20    31    32   ar
    21    32    33   ar
    22    33    34   ar
    23    34    35   ar
    24    35    36    1
    25    36    37    1
    26    37    38    1
    27    38    39    2
    28    38    40   am
    29     7     8   ar
    30     8     9   ar
    31     9    10    1
    32    17    18   ar
    33    18    19   ar
    34    19    21    1
    35    21    22    1
    36    21    23    1
    37    21    24    1
    38    19    20   ar
    39    20    15   ar
    40    10     1    1
    41     9     4   ar
    42    35    30   ar
    43    40    34    1
    44    13    14    1
    45    40    41    1
@<TRIPOS>MOLECULE
*****
 41 45 0 0 0
SMALL
GASTEIGER

@<TRIPOS>ATOM
      1 C         140.5226  143.5282  161.9905 C.3     1  UNL1        0.0765
      2 C         140.0735  144.9593  162.0011 C.3     1  UNL1        0.0246
      3 C         140.0362  145.7432  160.7227 C.3     1  UNL1        0.0277
      4 C         140.4481  145.0959  159.4338 C.ar    1  UNL1       -0.0258
      5 C         140.4108  145.8798  158.1554 C.ar    1  UNL1       -0.0014
      6 C         140.8227  145.2325  156.8665 C.ar    1  UNL1        0.0371
      7 C         141.2719  143.8013  156.8559 C.ar    1  UNL1        0.1450
      8 C         141.3092  143.0175  158.1342 C.ar    1  UNL1        0.0330
      9 C         140.8973  143.6648  159.4232 C.ar    1  UNL1       -0.0215
     10 C         140.9345  142.8810  160.7015 C.3     1  UNL1        0.0457
     11 C         139.2834  142.2549  163.8860 C.2     1  UNL1        0.2458
     12 O         137.9696  142.5493  163.2248 O.2     1  UNL1       -0.2701
     13 N         140.5599  142.7443  163.2688 N.am    1  UNL1       -0.3021
     14 H         141.4223  142.5511  163.7028 H       1  UNL1        0.1497
     15 C         140.0629  141.2442  167.6437 C.ar    1  UNL1       -0.0060
     16 C         140.0257  142.0281  166.3655 C.ar    1  UNL1        0.0016
     17 C         139.3207  141.4710  165.1644 C.ar    1  UNL1        0.0530
     18 C         138.6531  140.1300  165.2416 C.ar    1  UNL1        0.0083
     19 C         138.6903  139.3461  166.5199 C.ar    1  UNL1        0.0713
     20 C         139.3953  139.9032  167.7209 C.ar    1  UNL1        0.0009
     21 C         138.0226  138.0051  166.5971 C.3     1  UNL1        0.4186
     22 F         137.3550  136.6641  166.6743 F       1  UNL1       -0.1659
     23 F         138.8864  137.5104  165.4749 F       1  UNL1       -0.1659
     24 F         137.1588  138.4998  167.7192 F       1  UNL1       -0.1659
     25 C         140.7679  141.8012  168.8449 C.3     1  UNL1        0.0992
     26 C         142.7045  140.5645  170.0574 C.3     1  UNL1        0.0899
     27 N         142.2356  141.5558  169.0340 N.3     1  UNL1       -0.2665
     28 C         143.2343  142.3016  168.1995 C.3     1  UNL1        0.0899
     29 O         141.6838  143.1541  155.5670 O.3     1  UNL1       -0.4537
     30 C         142.8297  143.7155  154.7784 C.ar    1  UNL1        0.1455
     31 C         142.5703  144.6934  153.6710 C.ar    1  UNL1        0.0579
     32 C         143.7162  145.2548  152.8824 C.ar    1  UNL1        0.1034
     33 N         145.1215  144.8383  153.2014 N.ar    1  UNL1       -0.2291
     34 C         145.3809  143.8604  154.3089 C.ar    1  UNL1        0.1330
     35 C         144.2350  143.2990  155.0973 C.ar    1  UNL1        0.0445
     36 C         144.4943  142.3211  156.2048 C.3     1  UNL1        0.0419
     37 C         145.8996  141.9046  156.5238 C.3     1  UNL1        0.0903
     38 C         147.0455  142.4660  155.7352 C.2     1  UNL1        0.2275
     39 O         148.4508  142.0495  156.0541 O.2     1  UNL1       -0.2747
     40 N         146.7861  143.4439  154.6278 N.am    1  UNL1       -0.2695
     41 H         147.5382  143.8124  154.1103 H       1  UNL1        0.1562
@<TRIPOS>BOND
     1    26    27    1
     2    27    28    1
     3    27    25    1
     4    25    15    1
     5    15    16   ar
     6    16    17   ar
     7    17    11    1
     8    11    12    2
     9    11    13   am
    10     1    13    1
    11     1     2    1
    12     2     3    1
    13     3     4    1
    14     4     5   ar
    15     5     6   ar
    16     6     7   ar
    17     7    29    1
    18    29    30    1
    19    30    31   ar
    20    31    32   ar
    21    32    33   ar
    22    33    34   ar
    23    34    35   ar
    24    35    36    1
    25    36    37    1
    26    37    38    1
    27    38    39    2
    28    38    40   am
    29     7     8   ar
    30     8     9   ar
    31     9    10    1
    32    17    18   ar
    33    18    19   ar
    34    19    21    1
    35    21    22    1
    36    21    23    1
    37    21    24    1
    38    19    20   ar
    39    20    15   ar
    40    10     1    1
    41     9     4   ar
    42    35    30   ar
    43    40    34    1
    44    13    14    1
    45    40    41    1
@<TRIPOS>MOLECULE
*****
 41 45 0 0 0
SMALL
GASTEIGER

@<TRIPOS>ATOM
      1 C         140.5665  143.7653  162.1959 C.3     1  UNL1        0.0765
      2 C         140.0676  145.1739  162.0653 C.3     1  UNL1        0.0246
      3 C         140.0528  145.8428  160.7229 C.3     1  UNL1        0.0277
      4 C         140.5369  145.1032  159.5110 C.ar    1  UNL1       -0.0258
      5 C         140.5221  145.7722  158.1685 C.ar    1  UNL1       -0.0014
      6 C         141.0061  145.0326  156.9566 C.ar    1  UNL1        0.0371
      7 C         141.5049  143.6240  157.0872 C.ar    1  UNL1        0.1450
      8 C         141.5197  142.9550  158.4296 C.ar    1  UNL1        0.0330
      9 C         141.0357  143.6947  159.6415 C.ar    1  UNL1       -0.0215
     10 C         141.0505  143.0257  160.9840 C.3     1  UNL1        0.0457
     11 C         139.5700  142.0359  163.8591 C.2     1  UNL1        0.2458
     12 O         138.5439  141.6445  162.8374 O.2     1  UNL1       -0.2701
     13 N         140.5813  143.0963  163.5384 N.am    1  UNL1       -0.3021
     14 H         141.2547  143.3532  164.2090 H       1  UNL1        0.1497
     15 C         140.5419  141.1747  167.6093 C.ar    1  UNL1       -0.0060
     16 C         140.5271  141.8437  166.2669 C.ar    1  UNL1        0.0016
     17 C         139.5848  141.3669  165.2016 C.ar    1  UNL1        0.0530
     18 C         138.6574  140.2210  165.4788 C.ar    1  UNL1        0.0083
     19 C         138.6721  139.5520  166.8213 C.ar    1  UNL1        0.0713
     20 C         139.6144  140.0289  167.8865 C.ar    1  UNL1        0.0009
     21 C         137.7447  138.4062  167.0985 C.3     1  UNL1        0.4186
     22 F         136.8172  137.2603  167.3756 F       1  UNL1       -0.1659
     23 F         138.0444  137.8359  165.7439 F       1  UNL1       -0.1659
     24 F         137.4449  138.9765  168.4530 F       1  UNL1       -0.1659
     25 C         141.4841  141.6515  168.6746 C.3     1  UNL1        0.0992
     26 C         140.8877  141.6559  171.2033 C.3     1  UNL1        0.0899
     27 N         140.9519  142.3640  169.8825 N.3     1  UNL1       -0.2665
     28 C         140.4838  143.7847  169.7696 C.3     1  UNL1        0.0899
     29 O         141.9890  142.8844  155.8753 O.3     1  UNL1       -0.4537
     30 C         143.1066  141.8916  155.9993 C.ar    1  UNL1        0.1455
     31 C         144.5311  142.3615  155.9953 C.ar    1  UNL1        0.0579
     32 C         145.6487  141.3686  156.1193 C.ar    1  UNL1        0.1034
     33 N         145.3418  139.9060  156.2473 N.ar    1  UNL1       -0.2291
     34 C         143.9172  139.4361  156.2513 C.ar    1  UNL1        0.1330
     35 C         142.7997  140.4289  156.1273 C.ar    1  UNL1        0.0445
     36 C         141.3751  139.9590  156.1313 C.3     1  UNL1        0.0419
     37 C         141.0682  138.4964  156.2593 C.3     1  UNL1        0.0903
     38 C         142.1859  137.5035  156.3833 C.2     1  UNL1        0.2275
     39 O         141.8789  136.0409  156.5113 O.2     1  UNL1       -0.2747
     40 N         143.6103  137.9734  156.3793 N.am    1  UNL1       -0.2695
     41 H         144.3438  137.3218  156.4606 H       1  UNL1        0.1562
@<TRIPOS>BOND
     1    26    27    1
     2    27    28    1
     3    27    25    1
     4    25    15    1
     5    15    16   ar
     6    16    17   ar
     7    17    11    1
     8    11    12    2
     9    11    13   am
    10     1    13    1
    11     1     2    1
    12     2     3    1
    13     3     4    1
    14     4     5   ar
    15     5     6   ar
    16     6     7   ar
    17     7    29    1
    18    29    30    1
    19    30    31   ar
    20    31    32   ar
    21    32    33   ar
    22    33    34   ar
    23    34    35   ar
    24    35    36    1
    25    36    37    1
    26    37    38    1
    27    38    39    2
    28    38    40   am
    29     7     8   ar
    30     8     9   ar
    31     9    10    1
    32    17    18   ar
    33    18    19   ar
    34    19    21    1
    35    21    22    1
    36    21    23    1
    37    21    24    1
    38    19    20   ar
    39    20    15   ar
    40    10     1    1
    41     9     4   ar
    42    35    30   ar
    43    40    34    1
    44    13    14    1
    45    40    41    1
@<TRIPOS>MOLECULE
*****
 41 45 0 0 0
SMALL
GASTEIGER

@<TRIPOS>ATOM
      1 C         142.7769  140.6077  159.7069 C.3     1  UNL1        0.0765
      2 C         144.0976  141.2695  159.9672 C.3     1  UNL1        0.0246
      3 C         144.3055  142.0594  161.2252 C.3     1  UNL1        0.0277
      4 C         143.1928  142.1875  162.2230 C.ar    1  UNL1       -0.0258
      5 C         143.4008  142.9774  163.4811 C.ar    1  UNL1       -0.0014
      6 C         142.2881  143.1055  164.4788 C.ar    1  UNL1        0.0371
      7 C         140.9674  142.4437  164.2184 C.ar    1  UNL1        0.1450
      8 C         140.7595  141.6538  162.9604 C.ar    1  UNL1        0.0330
      9 C         141.8722  141.5257  161.9627 C.ar    1  UNL1       -0.0215
     10 C         141.6642  140.7358  160.7046 C.3     1  UNL1        0.0457
     11 C         142.6482  138.3202  158.4817 C.2     1  UNL1        0.2458
     12 O         142.9355  137.6126  159.7727 O.2     1  UNL1       -0.2701
     13 N         142.5689  139.8177  158.4487 N.am    1  UNL1       -0.3021
     14 H         142.3804  140.2822  157.6014 H       1  UNL1        0.1497
     15 C         141.3654  137.2880  154.8708 C.ar    1  UNL1       -0.0060
     16 C         141.5733  138.0779  156.1288 C.ar    1  UNL1        0.0016
     17 C         142.4402  137.5303  157.2236 C.ar    1  UNL1        0.0530
     18 C         143.0991  136.1927  157.0603 C.ar    1  UNL1        0.0083
     19 C         142.8911  135.4027  155.8023 C.ar    1  UNL1        0.0713
     20 C         142.0243  135.9504  154.7075 C.ar    1  UNL1        0.0009
     21 C         143.5500  134.0651  155.6390 C.3     1  UNL1        0.4186
     22 F         144.2089  132.7275  155.4757 F       1  UNL1       -0.1659
     23 F         142.8826  133.8991  154.3059 F       1  UNL1       -0.1659
     24 F         144.2174  134.2312  156.9720 F       1  UNL1       -0.1659
     25 C         140.4985  137.8356  153.7759 C.3     1  UNL1        0.0992
     26 C         138.0217  137.4950  154.4826 C.3     1  UNL1        0.0899
     27 N         139.1452  137.2403  153.5221 N.3     1  UNL1       -0.2665
     28 C         138.9156  136.3903  152.3076 C.3     1  UNL1        0.0899
     29 O         139.8547  142.5718  165.2162 O.3     1  UNL1       -0.4537
     30 C         139.4158  141.3756  166.0078 C.ar    1  UNL1        0.1455
     31 C         138.6228  140.2880  165.3460 C.ar    1  UNL1        0.0579
     32 C         138.1839  139.0918  166.1376 C.ar    1  UNL1        0.1034
     33 N         138.5381  138.9833  167.5912 N.ar    1  UNL1       -0.2291
     34 C         139.3312  140.0710  168.2530 C.ar    1  UNL1        0.1330
     35 C         139.7700  141.2671  167.4614 C.ar    1  UNL1        0.0445
     36 C         140.5631  142.3548  168.1233 C.3     1  UNL1        0.0419
     37 C         140.9173  142.2463  169.5768 C.3     1  UNL1        0.0903
     38 C         140.4784  141.0502  170.3685 C.2     1  UNL1        0.2275
     39 O         140.8327  140.9417  171.8220 O.2     1  UNL1       -0.2747
     40 N         139.6854  139.9626  169.7066 N.am    1  UNL1       -0.2695
     41 H         139.3974  139.1775  170.2262 H       1  UNL1        0.1562
@<TRIPOS>BOND
     1    26    27    1
     2    27    28    1
     3    27    25    1
     4    25    15    1
     5    15    16   ar
     6    16    17   ar
     7    17    11    1
     8    11    12    2
     9    11    13   am
    10     1    13    1
    11     1     2    1
    12     2     3    1
    13     3     4    1
    14     4     5   ar
    15     5     6   ar
    16     6     7   ar
    17     7    29    1
    18    29    30    1
    19    30    31   ar
    20    31    32   ar
    21    32    33   ar
    22    33    34   ar
    23    34    35   ar
    24    35    36    1
    25    36    37    1
    26    37    38    1
    27    38    39    2
    28    38    40   am
    29     7     8   ar
    30     8     9   ar
    31     9    10    1
    32    17    18   ar
    33    18    19   ar
    34    19    21    1
    35    21    22    1
    36    21    23    1
    37    21    24    1
    38    19    20   ar
    39    20    15   ar
    40    10     1    1
    41     9     4   ar
    42    35    30   ar
    43    40    34    1
    44    13    14    1
    45    40    41    1
