@<TRIPOS>MOLECULE
*****
 31 34 0 0 0
SMALL
GASTEIGER

@<TRIPOS>ATOM
      1 C         141.1919  144.7223  162.9225 C.3     1  UNL1        0.2355
      2 O         141.4778  143.8950  161.7044 O.3     1  UNL1       -0.3290
      3 C         142.8277  143.2661  161.5249 C.3     1  UNL1        0.1629
      4 C         143.8917  143.4644  162.5635 C.3     1  UNL1        0.1144
      5 C         143.6057  144.2916  163.7817 C.3     1  UNL1        0.1629
      6 O         142.2558  144.9206  163.9612 O.3     1  UNL1       -0.3290
      7 N         145.2415  142.8354  162.3840 N.3     1  UNL1       -0.2908
      8 H         145.9323  143.5593  162.5820 H       1  UNL1        0.1237
      9 C         145.6248  141.6364  163.1998 C.3     1  UNL1        0.0957
     10 C         144.5963  140.5972  163.5346 C.ar    1  UNL1       -0.0055
     11 C         144.0627  140.4932  164.9326 C.ar    1  UNL1       -0.0020
     12 C         143.0341  139.4539  165.2674 C.ar    1  UNL1        0.0120
     13 C         142.5393  138.5187  164.2042 C.ar    1  UNL1        0.0682
     14 CL        141.5107  137.4793  164.5390 Cl      1  UNL1       -0.0814
     15 C         143.0729  138.6227  162.8062 C.ar    1  UNL1        0.0679
     16 CL        142.5780  137.6874  161.7430 Cl      1  UNL1       -0.0814
     17 C         144.1014  139.6619  162.4714 C.ar    1  UNL1        0.0093
     18 C         139.8420  145.3512  163.1021 C.3     1  UNL1        0.0660
     19 C         138.8767  144.7832  164.0999 C.3     1  UNL1        0.0316
     20 C         140.5191  142.1303  167.3424 C.ar    1  UNL1        0.1388
     21 C         140.2123  140.6621  167.3374 C.ar    1  UNL1        0.0384
     22 C         139.3580  140.0781  166.2515 C.ar    1  UNL1        0.0222
     23 C         138.8105  140.9624  165.1707 C.ar    1  UNL1        0.0812
     24 N         137.9562  140.3784  164.0848 N.ar    1  UNL1       -0.2439
     25 C         137.4087  141.2627  163.0039 C.ar    1  UNL1        0.0985
     26 C         137.7155  142.7310  163.0089 C.ar    1  UNL1        0.0164
     27 C         138.5698  143.3150  164.0948 C.ar    1  UNL1       -0.0189
     28 C         139.1173  142.4306  165.1757 C.ar    1  UNL1        0.0168
     29 C         139.9716  143.0146  166.2616 C.ar    1  UNL1        0.0381
     30 C         140.7329  143.3677  169.6169 C.3     1  UNL1        0.2525
     31 O         141.3734  142.7143  168.4283 O.3     1  UNL1       -0.4714
@<TRIPOS>BOND
     1    30    31    1
     2    31    20    1
     3    20    21   ar
     4    21    22   ar
     5    22    23   ar
     6    23    24   ar
     7    24    25   ar
     8    25    26   ar
     9    26    27   ar
    10    27    19    1
    11    19    18    1
    12     1    18    1
    13     1     2    1
    14     2     3    1
    15     3     4    1
    16     4     7    1
    17     7     9    1
    18     9    10    1
    19    10    11   ar
    20    11    12   ar
    21    12    13   ar
    22    13    14    1
    23    13    15   ar
    24    15    16    1
    25    15    17   ar
    26     4     5    1
    27     5     6    1
    28    27    28   ar
    29    28    29   ar
    30    29    20   ar
    31    28    23   ar
    32     6     1    1
    33    17    10   ar
    34     7     8    1
@<TRIPOS>MOLECULE
*****
 31 34 0 0 0
SMALL
GASTEIGER

@<TRIPOS>ATOM
      1 C         142.4940  144.6260  163.5194 C.3     1  UNL1        0.2355
      2 O         141.2633  144.9991  164.2915 O.3     1  UNL1       -0.3290
      3 C         139.9054  144.7065  163.7256 C.3     1  UNL1        0.1629
      4 C         139.7780  144.0406  162.3875 C.3     1  UNL1        0.1144
      5 C         141.0087  143.6675  161.6153 C.3     1  UNL1        0.1629
      6 O         142.3667  143.9602  162.1813 O.3     1  UNL1       -0.3290
      7 N         138.4201  143.7480  161.8216 N.3     1  UNL1       -0.2908
      8 H         138.5676  143.2341  160.9529 H       1  UNL1        0.1237
      9 C         137.4258  142.9635  162.6253 C.3     1  UNL1        0.0957
     10 C         137.8197  141.6478  163.2282 C.ar    1  UNL1       -0.0055
     11 C         138.1046  141.5514  164.6977 C.ar    1  UNL1       -0.0020
     12 C         138.4986  140.2355  165.3006 C.ar    1  UNL1        0.0120
     13 C         138.6076  139.0161  164.4340 C.ar    1  UNL1        0.0682
     14 CL        139.0016  137.7003  165.0368 Cl      1  UNL1       -0.0814
     15 C         138.3228  139.1125  162.9644 C.ar    1  UNL1        0.0679
     16 CL        138.4319  137.8930  162.0977 Cl      1  UNL1       -0.0814
     17 C         137.9288  140.4283  162.3615 C.ar    1  UNL1        0.0093
     18 C         143.8519  144.9186  164.0853 C.3     1  UNL1        0.0660
     19 C         144.4273  144.0331  165.1507 C.3     1  UNL1        0.0316
     20 C         141.4156  141.6245  167.4698 C.ar    1  UNL1        0.1388
     21 C         141.3667  140.1336  167.3130 C.ar    1  UNL1        0.0384
     22 C         142.3217  139.4455  166.3832 C.ar    1  UNL1        0.0222
     23 C         143.3255  140.2483  165.6101 C.ar    1  UNL1        0.0812
     24 N         144.2805  139.5602  164.6803 N.ar    1  UNL1       -0.2439
     25 C         145.2843  140.3631  163.9073 C.ar    1  UNL1        0.0985
     26 C         145.3333  141.8541  164.0640 C.ar    1  UNL1        0.0164
     27 C         144.3783  142.5422  164.9939 C.ar    1  UNL1       -0.0189
     28 C         143.3744  141.7393  165.7669 C.ar    1  UNL1        0.0168
     29 C         142.4195  142.4274  166.6968 C.ar    1  UNL1        0.0381
     30 C         140.9848  143.1270  169.5451 C.3     1  UNL1        0.2525
     31 O         140.4607  142.3126  168.3997 O.3     1  UNL1       -0.4714
@<TRIPOS>BOND
     1    30    31    1
     2    31    20    1
     3    20    21   ar
     4    21    22   ar
     5    22    23   ar
     6    23    24   ar
     7    24    25   ar
     8    25    26   ar
     9    26    27   ar
    10    27    19    1
    11    19    18    1
    12     1    18    1
    13     1     2    1
    14     2     3    1
    15     3     4    1
    16     4     7    1
    17     7     9    1
    18     9    10    1
    19    10    11   ar
    20    11    12   ar
    21    12    13   ar
    22    13    14    1
    23    13    15   ar
    24    15    16    1
    25    15    17   ar
    26     4     5    1
    27     5     6    1
    28    27    28   ar
    29    28    29   ar
    30    29    20   ar
    31    28    23   ar
    32     6     1    1
    33    17    10   ar
    34     7     8    1
@<TRIPOS>MOLECULE
*****
 31 34 0 0 0
SMALL
GASTEIGER

@<TRIPOS>ATOM
      1 C         137.8575  142.6238  163.6951 C.3     1  UNL1        0.2355
      2 O         137.9089  142.2375  162.2466 O.3     1  UNL1       -0.3290
      3 C         138.0762  140.7979  161.8598 C.3     1  UNL1        0.1629
      4 C         138.1921  139.7446  162.9215 C.3     1  UNL1        0.1144
      5 C         138.1407  140.1309  164.3700 C.3     1  UNL1        0.1629
      6 O         137.9734  141.5705  164.7568 O.3     1  UNL1       -0.3290
      7 N         138.3593  138.3050  162.5347 N.3     1  UNL1       -0.2908
      8 H         138.6176  138.2934  161.5481 H       1  UNL1        0.1237
      9 C         139.3571  137.4463  163.2537 C.3     1  UNL1        0.0957
     10 C         140.7556  137.9431  163.4710 C.ar    1  UNL1       -0.0055
     11 C         141.5363  138.5119  162.3234 C.ar    1  UNL1       -0.0020
     12 C         142.9349  139.0088  162.5408 C.ar    1  UNL1        0.0120
     13 C         143.5527  138.9368  163.9057 C.ar    1  UNL1        0.0682
     14 CL        144.9513  139.4336  164.1231 Cl      1  UNL1       -0.0814
     15 C         142.7720  138.3680  165.0533 C.ar    1  UNL1        0.0679
     16 CL        143.3899  138.2960  166.4183 Cl      1  UNL1       -0.0814
     17 C         141.3735  137.8711  164.8360 C.ar    1  UNL1        0.0093
     18 C         137.6903  144.0633  164.0819 C.3     1  UNL1        0.0660
     19 C         138.8136  144.7943  164.7558 C.3     1  UNL1        0.0316
     20 C         141.2490  141.9902  167.2966 C.ar    1  UNL1        0.1388
     21 C         142.6704  141.6859  166.9266 C.ar    1  UNL1        0.0384
     22 C         143.2801  142.3164  165.7097 C.ar    1  UNL1        0.0222
     23 C         142.4683  143.2511  164.8628 C.ar    1  UNL1        0.0812
     24 N         143.0780  143.8816  163.6459 N.ar    1  UNL1       -0.2439
     25 C         142.2662  144.8163  162.7990 C.ar    1  UNL1        0.0985
     26 C         140.8447  145.1205  163.1689 C.ar    1  UNL1        0.0164
     27 C         140.2350  144.4901  164.3858 C.ar    1  UNL1       -0.0189
     28 C         141.0469  143.5553  165.2328 C.ar    1  UNL1        0.0168
     29 C         140.4372  142.9249  166.4496 C.ar    1  UNL1        0.0381
     30 C         139.6938  140.2046  168.3658 C.3     1  UNL1        0.2525
     31 O         140.6393  141.3597  168.5135 O.3     1  UNL1       -0.4714
@<TRIPOS>BOND
     1    30    31    1
     2    31    20    1
     3    20    21   ar
     4    21    22   ar
     5    22    23   ar
     6    23    24   ar
     7    24    25   ar
     8    25    26   ar
     9    26    27   ar
    10    27    19    1
    11    19    18    1
    12     1    18    1
    13     1     2    1
    14     2     3    1
    15     3     4    1
    16     4     7    1
    17     7     9    1
    18     9    10    1
    19    10    11   ar
    20    11    12   ar
    21    12    13   ar
    22    13    14    1
    23    13    15   ar
    24    15    16    1
    25    15    17   ar
    26     4     5    1
    27     5     6    1
    28    27    28   ar
    29    28    29   ar
    30    29    20   ar
    31    28    23   ar
    32     6     1    1
    33    17    10   ar
    34     7     8    1
@<TRIPOS>MOLECULE
*****
 31 34 0 0 0
SMALL
GASTEIGER

@<TRIPOS>ATOM
      1 C         138.2757  139.8385  162.1920 C.3     1  UNL1        0.2355
      2 O         137.3600  140.5318  163.1568 O.3     1  UNL1       -0.3290
      3 C         137.3181  142.0303  163.2063 C.3     1  UNL1        0.1629
      4 C         138.1919  142.8357  162.2910 C.3     1  UNL1        0.1144
      5 C         139.1076  142.1425  161.3261 C.3     1  UNL1        0.1629
      6 O         139.1495  140.6438  161.2766 O.3     1  UNL1       -0.3290
      7 N         138.1501  144.3343  162.3405 N.3     1  UNL1       -0.2908
      8 H         137.1713  144.5979  162.4544 H       1  UNL1        0.1237
      9 C         138.9226  145.0718  163.3937 C.3     1  UNL1        0.0957
     10 C         140.2489  144.5463  163.8570 C.ar    1  UNL1       -0.0055
     11 C         140.3101  143.5370  164.9649 C.ar    1  UNL1       -0.0020
     12 C         141.6365  143.0115  165.4282 C.ar    1  UNL1        0.0120
     13 C         142.9016  143.4952  164.7836 C.ar    1  UNL1        0.0682
     14 CL        144.2280  142.9697  165.2469 Cl      1  UNL1       -0.0814
     15 C         142.8403  144.5046  163.6757 C.ar    1  UNL1        0.0679
     16 CL        144.1054  144.9884  163.0311 Cl      1  UNL1       -0.0814
     17 C         141.5140  145.0301  163.2124 C.ar    1  UNL1        0.0093
     18 C         138.3176  138.3400  162.1425 C.3     1  UNL1        0.0660
     19 C         138.7419  137.5611  163.3522 C.3     1  UNL1        0.0316
     20 C         143.1424  138.5007  163.3033 C.ar    1  UNL1        0.1388
     21 C         143.7714  139.2071  164.4674 C.ar    1  UNL1        0.0384
     22 C         142.9336  139.6004  165.6479 C.ar    1  UNL1        0.0222
     23 C         141.4668  139.2872  165.6642 C.ar    1  UNL1        0.0812
     24 N         140.6290  139.6804  166.8447 N.ar    1  UNL1       -0.2439
     25 C         139.1622  139.3672  166.8610 C.ar    1  UNL1        0.0985
     26 C         138.5331  138.6608  165.6968 C.ar    1  UNL1        0.0164
     27 C         139.3709  138.2675  164.5164 C.ar    1  UNL1       -0.0189
     28 C         140.8378  138.5808  164.5001 C.ar    1  UNL1        0.0168
     29 C         141.6756  138.1875  163.3196 C.ar    1  UNL1        0.0381
     30 C         143.3276  137.8128  160.8048 C.3     1  UNL1        0.2525
     31 O         143.9802  138.1075  162.1228 O.3     1  UNL1       -0.4714
@<TRIPOS>BOND
     1    30    31    1
     2    31    20    1
     3    20    21   ar
     4    21    22   ar
     5    22    23   ar
     6    23    24   ar
     7    24    25   ar
     8    25    26   ar
     9    26    27   ar
    10    27    19    1
    11    19    18    1
    12     1    18    1
    13     1     2    1
    14     2     3    1
    15     3     4    1
    16     4     7    1
    17     7     9    1
    18     9    10    1
    19    10    11   ar
    20    11    12   ar
    21    12    13   ar
    22    13    14    1
    23    13    15   ar
    24    15    16    1
    25    15    17   ar
    26     4     5    1
    27     5     6    1
    28    27    28   ar
    29    28    29   ar
    30    29    20   ar
    31    28    23   ar
    32     6     1    1
    33    17    10   ar
    34     7     8    1
@<TRIPOS>MOLECULE
*****
 31 34 0 0 0
SMALL
GASTEIGER

@<TRIPOS>ATOM
      1 C         139.2117  144.0596  162.8126 C.3     1  UNL1        0.2355
      2 O         139.9616  143.7404  161.5533 O.3     1  UNL1       -0.3290
      3 C         141.4225  144.0637  161.4479 C.3     1  UNL1        0.1629
      4 C         142.1336  144.7063  162.6019 C.3     1  UNL1        0.1144
      5 C         141.3837  145.0255  163.8612 C.3     1  UNL1        0.1629
      6 O         139.9227  144.7021  163.9665 O.3     1  UNL1       -0.3290
      7 N         143.5945  145.0296  162.4965 N.3     1  UNL1       -0.2908
      8 H         143.8186  145.6392  163.2830 H       1  UNL1        0.1237
      9 C         144.6094  143.9251  162.5018 C.3     1  UNL1        0.0957
     10 C         144.3226  142.6465  163.2316 C.ar    1  UNL1       -0.0055
     11 C         144.0444  142.6703  164.7054 C.ar    1  UNL1       -0.0020
     12 C         143.7575  141.3916  165.4353 C.ar    1  UNL1        0.0120
     13 C         143.7489  140.0891  164.6914 C.ar    1  UNL1        0.0682
     14 CL        143.4620  138.8104  165.4213 Cl      1  UNL1       -0.0814
     15 C         144.0271  140.0653  163.2176 C.ar    1  UNL1        0.0679
     16 CL        144.0184  138.7627  162.4737 Cl      1  UNL1       -0.0814
     17 C         144.3139  141.3439  162.4877 C.ar    1  UNL1        0.0093
     18 C         137.7508  143.7363  162.9180 C.3     1  UNL1        0.0660
     19 C         137.3126  142.4301  163.5113 C.3     1  UNL1        0.0316
     20 C         138.5065  138.9393  166.0879 C.ar    1  UNL1        0.1388
     21 C         138.9284  137.6477  165.4524 C.ar    1  UNL1        0.0384
     22 C         138.9524  137.5198  163.9580 C.ar    1  UNL1        0.0222
     23 C         138.5544  138.6834  163.0992 C.ar    1  UNL1        0.0812
     24 N         138.5783  138.5554  161.6048 N.ar    1  UNL1       -0.2439
     25 C         138.1803  139.7190  160.7460 C.ar    1  UNL1        0.0985
     26 C         137.7584  141.0106  161.3815 C.ar    1  UNL1        0.0164
     27 C         137.7345  141.1386  162.8758 C.ar    1  UNL1       -0.0189
     28 C         138.1325  139.9749  163.7347 C.ar    1  UNL1        0.0168
     29 C         138.1086  140.1028  165.2290 C.ar    1  UNL1        0.0381
     30 C         139.4606  139.9705  168.2733 C.3     1  UNL1        0.2525
     31 O         138.4826  139.0672  167.5822 O.3     1  UNL1       -0.4714
@<TRIPOS>BOND
     1    30    31    1
     2    31    20    1
     3    20    21   ar
     4    21    22   ar
     5    22    23   ar
     6    23    24   ar
     7    24    25   ar
     8    25    26   ar
     9    26    27   ar
    10    27    19    1
    11    19    18    1
    12     1    18    1
    13     1     2    1
    14     2     3    1
    15     3     4    1
    16     4     7    1
    17     7     9    1
    18     9    10    1
    19    10    11   ar
    20    11    12   ar
    21    12    13   ar
    22    13    14    1
    23    13    15   ar
    24    15    16    1
    25    15    17   ar
    26     4     5    1
    27     5     6    1
    28    27    28   ar
    29    28    29   ar
    30    29    20   ar
    31    28    23   ar
    32     6     1    1
    33    17    10   ar
    34     7     8    1
@<TRIPOS>MOLECULE
*****
 31 34 0 0 0
SMALL
GASTEIGER

@<TRIPOS>ATOM
      1 C         142.1479  138.0101  164.1726 C.3     1  UNL1        0.2355
      2 O         142.8086  138.8435  165.2304 O.3     1  UNL1       -0.3290
      3 C         143.9484  139.7490  164.8686 C.3     1  UNL1        0.1629
      4 C         144.4276  139.8211  163.4490 C.3     1  UNL1        0.1144
      5 C         143.7669  138.9877  162.3912 C.3     1  UNL1        0.1629
      6 O         142.6270  138.0822  162.7531 O.3     1  UNL1       -0.3290
      7 N         145.5674  140.7265  163.0872 N.3     1  UNL1       -0.2908
      8 H         145.6423  140.7136  162.0701 H       1  UNL1        0.1237
      9 C         145.5407  142.1680  163.5011 C.3     1  UNL1        0.0957
     10 C         144.3222  143.0018  163.2365 C.ar    1  UNL1       -0.0055
     11 C         143.6335  143.7041  164.3690 C.ar    1  UNL1       -0.0020
     12 C         142.4150  144.5379  164.1044 C.ar    1  UNL1        0.0120
     13 C         141.8851  144.6694  162.7073 C.ar    1  UNL1        0.0682
     14 CL        140.6666  145.5032  162.4426 Cl      1  UNL1       -0.0814
     15 C         142.5738  143.9671  161.5748 C.ar    1  UNL1        0.0679
     16 CL        142.0439  144.0986  160.1776 Cl      1  UNL1       -0.0814
     17 C         143.7923  143.1333  161.8394 C.ar    1  UNL1        0.0093
     18 C         141.0081  137.1047  164.5344 C.3     1  UNL1        0.0660
     19 C         139.6540  137.6820  164.8228 C.3     1  UNL1        0.0316
     20 C         139.5772  142.1246  165.5349 C.ar    1  UNL1        0.1388
     21 C         138.9211  143.0328  164.5376 C.ar    1  UNL1        0.0384
     22 C         138.2906  142.4601  163.3029 C.ar    1  UNL1        0.0222
     23 C         138.3162  140.9793  163.0655 C.ar    1  UNL1        0.0812
     24 N         137.6857  140.4066  161.8308 N.ar    1  UNL1       -0.2439
     25 C         137.7113  138.9258  161.5934 C.ar    1  UNL1        0.0985
     26 C         138.3674  138.0175  162.5908 C.ar    1  UNL1        0.0164
     27 C         138.9979  138.5902  163.8255 C.ar    1  UNL1       -0.0189
     28 C         138.9723  140.0711  164.0628 C.ar    1  UNL1        0.0168
     29 C         139.6028  140.6438  165.2976 C.ar    1  UNL1        0.0381
     30 C         141.5491  142.2039  167.2247 C.3     1  UNL1        0.2525
     31 O         140.2077  142.6973  166.7697 O.3     1  UNL1       -0.4714
@<TRIPOS>BOND
     1    30    31    1
     2    31    20    1
     3    20    21   ar
     4    21    22   ar
     5    22    23   ar
     6    23    24   ar
     7    24    25   ar
     8    25    26   ar
     9    26    27   ar
    10    27    19    1
    11    19    18    1
    12     1    18    1
    13     1     2    1
    14     2     3    1
    15     3     4    1
    16     4     7    1
    17     7     9    1
    18     9    10    1
    19    10    11   ar
    20    11    12   ar
    21    12    13   ar
    22    13    14    1
    23    13    15   ar
    24    15    16    1
    25    15    17   ar
    26     4     5    1
    27     5     6    1
    28    27    28   ar
    29    28    29   ar
    30    29    20   ar
    31    28    23   ar
    32     6     1    1
    33    17    10   ar
    34     7     8    1
@<TRIPOS>MOLECULE
*****
 31 34 0 0 0
SMALL
GASTEIGER

@<TRIPOS>ATOM
      1 C         137.7766  140.3083  161.6561 C.3     1  UNL1        0.2355
      2 O         138.4409  141.1906  160.6410 O.3     1  UNL1       -0.3290
      3 C         138.6530  142.6458  160.9364 C.3     1  UNL1        0.1629
      4 C         138.2009  143.2189  162.2468 C.3     1  UNL1        0.1144
      5 C         137.5366  142.3366  163.2619 C.3     1  UNL1        0.1629
      6 O         137.3244  140.8813  162.9665 O.3     1  UNL1       -0.3290
      7 N         138.4130  144.6741  162.5422 N.3     1  UNL1       -0.2908
      8 H         137.4904  145.1087  162.5586 H       1  UNL1        0.1237
      9 C         139.1099  145.0895  163.8039 C.3     1  UNL1        0.0957
     10 C         140.5050  144.6136  164.0817 C.ar    1  UNL1       -0.0055
     11 C         141.6772  145.3466  163.4998 C.ar    1  UNL1       -0.0020
     12 C         143.0724  144.8707  163.7776 C.ar    1  UNL1        0.0120
     13 C         143.2952  143.6619  164.6373 C.ar    1  UNL1        0.0682
     14 CL        144.6904  143.1860  164.9151 Cl      1  UNL1       -0.0814
     15 C         142.1230  142.9289  165.2192 C.ar    1  UNL1        0.0679
     16 CL        142.3459  141.7201  166.0789 Cl      1  UNL1       -0.0814
     17 C         140.7279  143.4048  164.9414 C.ar    1  UNL1        0.0093
     18 C         137.5644  138.8531  161.3607 C.3     1  UNL1        0.0660
     19 C         138.7428  137.9327  161.2403 C.3     1  UNL1        0.0316
     20 C         143.0260  138.5390  160.0008 C.ar    1  UNL1        0.1388
     21 C         144.1097  138.5684  161.0374 C.ar    1  UNL1        0.0384
     22 C         143.7657  138.3958  162.4872 C.ar    1  UNL1        0.0222
     23 C         142.3380  138.1937  162.9004 C.ar    1  UNL1        0.0812
     24 N         141.9940  138.0210  164.3501 N.ar    1  UNL1       -0.2439
     25 C         140.5663  137.8189  164.7633 C.ar    1  UNL1        0.0985
     26 C         139.4825  137.7894  163.7266 C.ar    1  UNL1        0.0164
     27 C         139.8265  137.9621  162.2769 C.ar    1  UNL1       -0.0189
     28 C         141.2543  138.1642  161.8637 C.ar    1  UNL1        0.0168
     29 C         141.5983  138.3369  160.4140 C.ar    1  UNL1        0.0381
     30 C         142.6746  137.8836  157.5114 C.3     1  UNL1        0.2525
     31 O         143.3700  138.7117  158.5510 O.3     1  UNL1       -0.4714
@<TRIPOS>BOND
     1    30    31    1
     2    31    20    1
     3    20    21   ar
     4    21    22   ar
     5    22    23   ar
     6    23    24   ar
     7    24    25   ar
     8    25    26   ar
     9    26    27   ar
    10    27    19    1
    11    19    18    1
    12     1    18    1
    13     1     2    1
    14     2     3    1
    15     3     4    1
    16     4     7    1
    17     7     9    1
    18     9    10    1
    19    10    11   ar
    20    11    12   ar
    21    12    13   ar
    22    13    14    1
    23    13    15   ar
    24    15    16    1
    25    15    17   ar
    26     4     5    1
    27     5     6    1
    28    27    28   ar
    29    28    29   ar
    30    29    20   ar
    31    28    23   ar
    32     6     1    1
    33    17    10   ar
    34     7     8    1
@<TRIPOS>MOLECULE
*****
 31 34 0 0 0
SMALL
GASTEIGER

@<TRIPOS>ATOM
      1 C         139.9772  138.2622  164.2611 C.3     1  UNL1        0.2355
      2 O         139.4959  138.4021  162.8473 O.3     1  UNL1       -0.3290
      3 C         138.4884  139.4573  162.4991 C.3     1  UNL1        0.1629
      4 C         137.9621  140.3727  163.5645 C.3     1  UNL1        0.1144
      5 C         138.4435  140.2329  164.9783 C.3     1  UNL1        0.1629
      6 O         139.4511  139.1776  165.3266 O.3     1  UNL1       -0.3290
      7 N         136.9546  141.4279  163.2163 N.3     1  UNL1       -0.2908
      8 H         136.4895  141.6894  164.0856 H       1  UNL1        0.1237
      9 C         137.3991  142.7028  162.5626 C.3     1  UNL1        0.0957
     10 C         138.7307  143.2993  162.9105 C.ar    1  UNL1       -0.0055
     11 C         138.9068  144.0375  164.2043 C.ar    1  UNL1       -0.0020
     12 C         140.2385  144.6340  164.5521 C.ar    1  UNL1        0.0120
     13 C         141.3939  144.4924  163.6061 C.ar    1  UNL1        0.0682
     14 CL        142.7255  145.0889  163.9539 Cl      1  UNL1       -0.0814
     15 C         141.2177  143.7542  162.3123 C.ar    1  UNL1        0.0679
     16 CL        142.3732  143.6125  161.3663 Cl      1  UNL1       -0.0814
     17 C         139.8861  143.1576  161.9644 C.ar    1  UNL1        0.0093
     18 C         140.9848  137.2070  164.6094 C.3     1  UNL1        0.0660
     19 C         142.3672  137.6020  165.0374 C.3     1  UNL1        0.0316
     20 C         142.4286  140.8953  168.1034 C.ar    1  UNL1        0.1388
     21 C         142.9683  142.2472  167.7412 C.ar    1  UNL1        0.0384
     22 C         143.4875  142.5013  166.3571 C.ar    1  UNL1        0.0222
     23 C         143.4670  141.4036  165.3351 C.ar    1  UNL1        0.0812
     24 N         143.9862  141.6577  163.9509 N.ar    1  UNL1       -0.2439
     25 C         143.9657  140.5600  162.9289 C.ar    1  UNL1        0.0985
     26 C         143.4260  139.2080  163.2911 C.ar    1  UNL1        0.0164
     27 C         142.9068  138.9539  164.6752 C.ar    1  UNL1       -0.0189
     28 C         142.9273  140.0517  165.6972 C.ar    1  UNL1        0.0168
     29 C         142.4081  139.7976  167.0814 C.ar    1  UNL1        0.0381
     30 C         142.8328  140.1283  170.5525 C.3     1  UNL1        0.2525
     31 O         141.9094  140.6412  169.4875 O.3     1  UNL1       -0.4714
@<TRIPOS>BOND
     1    30    31    1
     2    31    20    1
     3    20    21   ar
     4    21    22   ar
     5    22    23   ar
     6    23    24   ar
     7    24    25   ar
     8    25    26   ar
     9    26    27   ar
    10    27    19    1
    11    19    18    1
    12     1    18    1
    13     1     2    1
    14     2     3    1
    15     3     4    1
    16     4     7    1
    17     7     9    1
    18     9    10    1
    19    10    11   ar
    20    11    12   ar
    21    12    13   ar
    22    13    14    1
    23    13    15   ar
    24    15    16    1
    25    15    17   ar
    26     4     5    1
    27     5     6    1
    28    27    28   ar
    29    28    29   ar
    30    29    20   ar
    31    28    23   ar
    32     6     1    1
    33    17    10   ar
    34     7     8    1
@<TRIPOS>MOLECULE
*****
 31 34 0 0 0
SMALL
GASTEIGER

@<TRIPOS>ATOM
      1 C         143.1374  143.9500  162.2830 C.3     1  UNL1        0.2355
      2 O         142.4167  144.0587  163.5941 O.3     1  UNL1       -0.3290
      3 C         140.9764  144.4762  163.6258 C.3     1  UNL1        0.1629
      4 C         140.2566  144.7850  162.3464 C.3     1  UNL1        0.1144
      5 C         140.9773  144.6764  161.0354 C.3     1  UNL1        0.1629
      6 O         142.4178  144.2589  161.0037 O.3     1  UNL1       -0.3290
      7 N         138.8163  145.2025  162.3782 N.3     1  UNL1       -0.2908
      8 H         138.5169  145.3012  161.4081 H       1  UNL1        0.1237
      9 C         137.7990  144.3358  163.0593 C.3     1  UNL1        0.0957
     10 C         137.9111  142.8422  162.9777 C.ar    1  UNL1       -0.0055
     11 C         137.9548  142.1653  161.6399 C.ar    1  UNL1       -0.0020
     12 C         138.0668  140.6716  161.5584 C.ar    1  UNL1        0.0120
     13 C         138.1352  139.8550  162.8148 C.ar    1  UNL1        0.0682
     14 CL        138.2473  138.3614  162.7333 Cl      1  UNL1       -0.0814
     15 C         138.0915  140.5320  164.1526 C.ar    1  UNL1        0.0679
     16 CL        138.1599  139.7153  165.4090 Cl      1  UNL1       -0.0814
     17 C         137.9795  142.0255  164.2341 C.ar    1  UNL1        0.0093
     18 C         144.5778  143.5325  162.2513 C.3     1  UNL1        0.0660
     19 C         145.0427  142.3780  163.0886 C.3     1  UNL1        0.0316
     20 C         142.7943  140.6504  166.5829 C.ar    1  UNL1        0.1388
     21 C         142.1238  139.3146  166.4569 C.ar    1  UNL1        0.0384
     22 C         142.2028  138.5546  165.1661 C.ar    1  UNL1        0.0222
     23 C         142.9522  139.1304  164.0013 C.ar    1  UNL1        0.0812
     24 N         143.0312  138.3704  162.7105 N.ar    1  UNL1       -0.2439
     25 C         143.7806  138.9463  161.5458 C.ar    1  UNL1        0.0985
     26 C         144.4511  140.2822  161.6718 C.ar    1  UNL1        0.0164
     27 C         144.3722  141.0422  162.9626 C.ar    1  UNL1       -0.0189
     28 C         143.6227  140.4663  164.1274 C.ar    1  UNL1        0.0168
     29 C         143.5437  141.2263  165.4182 C.ar    1  UNL1        0.0381
     30 C         142.7153  140.6726  169.1797 C.3     1  UNL1        0.2525
     31 O         142.7154  141.4104  167.8737 O.3     1  UNL1       -0.4714
@<TRIPOS>BOND
     1    30    31    1
     2    31    20    1
     3    20    21   ar
     4    21    22   ar
     5    22    23   ar
     6    23    24   ar
     7    24    25   ar
     8    25    26   ar
     9    26    27   ar
    10    27    19    1
    11    19    18    1
    12     1    18    1
    13     1     2    1
    14     2     3    1
    15     3     4    1
    16     4     7    1
    17     7     9    1
    18     9    10    1
    19    10    11   ar
    20    11    12   ar
    21    12    13   ar
    22    13    14    1
    23    13    15   ar
    24    15    16    1
    25    15    17   ar
    26     4     5    1
    27     5     6    1
    28    27    28   ar
    29    28    29   ar
    30    29    20   ar
    31    28    23   ar
    32     6     1    1
    33    17    10   ar
    34     7     8    1
