@<TRIPOS>MOLECULE
*****
 34 36 0 0 0
SMALL
GASTEIGER

@<TRIPOS>ATOM
      1 C         137.9716  142.4530  162.1166 C.ar    1  UNL1        0.1417
      2 C         138.1005  141.3957  163.1727 C.ar    1  UNL1        0.0743
      3 C         138.2936  139.9614  162.7783 C.ar    1  UNL1        0.1485
      4 C         138.3578  139.5845  161.3278 C.ar    1  UNL1        0.0422
      5 C         138.2288  140.6419  160.2718 C.ar    1  UNL1        0.0597
      6 C         138.0357  142.0761  160.6662 C.ar    1  UNL1        0.0416
      7 C         138.2930  140.2650  158.8213 C.2     1  UNL1        0.2508
      8 O         139.0458  139.0387  158.3976 O.2     1  UNL1       -0.2698
      9 N         137.6043  141.1144  157.7945 N.am    1  UNL1       -0.2644
     10 H         137.1102  141.9192  158.0726 H       1  UNL1        0.1566
     11 C         137.6685  140.7375  156.3440 C.ar    1  UNL1        0.1557
     12 C         138.7881  141.0579  155.3986 C.ar    1  UNL1        0.0564
     13 C         138.4359  140.4925  154.0545 C.ar    1  UNL1        0.0981
     14 N         137.0986  139.8228  154.1694 N.ar    1  UNL1       -0.2462
     15 C         136.3645  139.1243  153.0635 C.3     1  UNL1        0.1538
     16 N         136.6243  139.9742  155.5844 N.ar    1  UNL1       -0.1539
     17 O         137.7785  143.8873  162.5110 O.3     1  UNL1       -0.4765
     18 C         138.9720  144.8136  164.6247 C.3     1  UNL1        0.0500
     19 C         138.9080  144.6523  163.1347 C.3     1  UNL1        0.1951
     20 C         139.9735  145.2559  162.2685 C.3     1  UNL1        0.1807
     21 O         140.1991  146.7387  162.2806 O.3     1  UNL1       -0.3785
     22 H         139.4202  147.1873  161.9160 H       1  UNL1        0.2106
     23 O         138.4226  138.9040  163.8344 O.3     1  UNL1       -0.4534
     24 C         139.0013  139.2491  165.1745 C.ar    1  UNL1        0.1453
     25 C         138.1195  139.2766  166.3877 C.ar    1  UNL1        0.0376
     26 C         138.6982  139.6217  167.7279 C.ar    1  UNL1        0.0076
     27 C         140.1587  139.9394  167.8548 C.ar    1  UNL1        0.0538
     28 C         141.0404  139.9120  166.6417 C.ar    1  UNL1        0.0076
     29 C         140.4617  139.5668  165.3015 C.ar    1  UNL1        0.0376
     30 C         140.7374  140.2846  169.1949 C.2     1  UNL1        0.2491
     31 O         141.1165  139.1934  170.1518 O.2     1  UNL1       -0.2699
     32 N         140.9370  141.7211  169.5782 N.am    1  UNL1       -0.2726
     33 C         141.5157  142.0662  170.9184 C.3     1  UNL1        0.1152
     34 C         140.5580  142.8122  168.6214 C.3     1  UNL1        0.1152
@<TRIPOS>BOND
     1    19    18    1
     2    19    20    1
     3    20    21    1
     4    19    17    1
     5    17     1    1
     6     1     2   ar
     7     2     3   ar
     8     3    23    1
     9    23    24    1
    10    24    25   ar
    11    25    26   ar
    12    26    27   ar
    13    27    30    1
    14    30    31    2
    15    30    32   am
    16    32    33    1
    17    32    34    1
    18    27    28   ar
    19    28    29   ar
    20     3     4   ar
    21     4     5   ar
    22     5     7    1
    23     7     8    2
    24     7     9   am
    25     9    11    1
    26    11    12   ar
    27    12    13   ar
    28    13    14   ar
    29    14    15    1
    30    14    16   ar
    31     5     6   ar
    32     6     1   ar
    33    29    24   ar
    34    16    11   ar
    35    21    22    1
    36     9    10    1
@<TRIPOS>MOLECULE
*****
 34 36 0 0 0
SMALL
GASTEIGER

@<TRIPOS>ATOM
      1 C         138.1015  142.2478  161.9355 C.ar    1  UNL1        0.1417
      2 C         138.0969  141.2483  163.0539 C.ar    1  UNL1        0.0743
      3 C         138.4353  139.8131  162.7786 C.ar    1  UNL1        0.1485
      4 C         138.7784  139.3775  161.3849 C.ar    1  UNL1        0.0422
      5 C         138.7830  140.3770  160.2665 C.ar    1  UNL1        0.0597
      6 C         138.4445  141.8122  160.5418 C.ar    1  UNL1        0.0416
      7 C         139.1260  139.9414  158.8726 C.2     1  UNL1        0.2508
      8 O         139.0224  140.9145  157.7359 O.2     1  UNL1       -0.2698
      9 N         139.5727  138.5327  158.6157 N.am    1  UNL1       -0.2644
     10 H         139.6407  137.8941  159.3618 H       1  UNL1        0.1566
     11 C         139.9158  138.0971  157.2219 C.ar    1  UNL1        0.1557
     12 C         141.2987  137.9423  156.6618 C.ar    1  UNL1        0.0564
     13 C         141.1738  137.4894  155.2373 C.ar    1  UNL1        0.0981
     14 N         139.7137  137.3643  154.9170 N.ar    1  UNL1       -0.2462
     15 C         139.1331  136.9383  153.6012 C.3     1  UNL1        0.1538
     16 N         138.9362  137.7399  156.1435 N.ar    1  UNL1       -0.1539
     17 O         137.7631  143.6830  162.2108 O.3     1  UNL1       -0.4765
     18 C         138.8832  144.7812  164.2818 C.3     1  UNL1        0.0500
     19 C         138.7973  144.5986  162.7954 C.3     1  UNL1        0.1951
     20 C         139.7458  145.3317  161.8937 C.3     1  UNL1        0.1807
     21 O         140.1955  146.7185  162.2465 O.3     1  UNL1       -0.3785
     22 H         139.4377  147.3230  162.2108 H       1  UNL1        0.2106
     23 O         138.4307  138.8136  163.8971 O.3     1  UNL1       -0.4534
     24 C         139.0079  139.1796  165.2324 C.ar    1  UNL1        0.1453
     25 C         138.1225  139.2367  166.4419 C.ar    1  UNL1        0.0376
     26 C         138.6997  139.6027  167.7772 C.ar    1  UNL1        0.0076
     27 C         140.1622  139.9116  167.9029 C.ar    1  UNL1        0.0538
     28 C         141.0475  139.8545  166.6933 C.ar    1  UNL1        0.0076
     29 C         140.4703  139.4885  165.3581 C.ar    1  UNL1        0.0376
     30 C         140.7394  140.2776  169.2381 C.2     1  UNL1        0.2491
     31 O         141.1120  139.2016  170.2145 O.2     1  UNL1       -0.2699
     32 N         140.9439  141.7196  169.5970 N.am    1  UNL1       -0.2726
     33 C         141.5211  142.0856  170.9322 C.3     1  UNL1        0.1152
     34 C         140.5713  142.7956  168.6206 C.3     1  UNL1        0.1152
@<TRIPOS>BOND
     1    19    18    1
     2    19    20    1
     3    20    21    1
     4    19    17    1
     5    17     1    1
     6     1     2   ar
     7     2     3   ar
     8     3    23    1
     9    23    24    1
    10    24    25   ar
    11    25    26   ar
    12    26    27   ar
    13    27    30    1
    14    30    31    2
    15    30    32   am
    16    32    33    1
    17    32    34    1
    18    27    28   ar
    19    28    29   ar
    20     3     4   ar
    21     4     5   ar
    22     5     7    1
    23     7     8    2
    24     7     9   am
    25     9    11    1
    26    11    12   ar
    27    12    13   ar
    28    13    14   ar
    29    14    15    1
    30    14    16   ar
    31     5     6   ar
    32     6     1   ar
    33    29    24   ar
    34    16    11   ar
    35    21    22    1
    36     9    10    1
@<TRIPOS>MOLECULE
*****
 34 36 0 0 0
SMALL
GASTEIGER

@<TRIPOS>ATOM
      1 C         138.2192  141.3860  161.4808 C.ar    1  UNL1        0.1417
      2 C         138.1101  140.5197  162.7005 C.ar    1  UNL1        0.0743
      3 C         138.6637  139.1257  162.6823 C.ar    1  UNL1        0.1485
      4 C         139.3264  138.5980  161.4445 C.ar    1  UNL1        0.0422
      5 C         139.4355  139.4643  160.2248 C.ar    1  UNL1        0.0597
      6 C         138.8819  140.8583  160.2430 C.ar    1  UNL1        0.0416
      7 C         140.0983  138.9366  158.9869 C.2     1  UNL1        0.2508
      8 O         139.2719  138.5855  157.7853 O.2     1  UNL1       -0.2698
      9 N         141.5874  138.7599  158.9506 N.am    1  UNL1       -0.2644
     10 H         142.1298  138.9903  159.7392 H       1  UNL1        0.1566
     11 C         142.2501  138.2322  157.7127 C.ar    1  UNL1        0.1557
     12 C         142.5524  139.0181  156.4713 C.ar    1  UNL1        0.0564
     13 C         143.2160  138.0976  155.4902 C.ar    1  UNL1        0.0981
     14 N         143.3238  136.7429  156.1253 N.ar    1  UNL1       -0.2462
     15 C         143.9233  135.5199  155.4972 C.3     1  UNL1        0.1538
     16 N         142.7269  136.8262  157.4989 N.ar    1  UNL1       -0.1539
     17 O         137.6656  142.7800  161.4989 O.3     1  UNL1       -0.4765
     18 C         137.6826  144.0767  163.7502 C.3     1  UNL1        0.0500
     19 C         138.2736  143.8168  162.3962 C.3     1  UNL1        0.1951
     20 C         139.4727  144.5938  161.9396 C.3     1  UNL1        0.1807
     21 O         140.4068  145.1932  162.9486 O.3     1  UNL1       -0.3785
     22 H         139.9443  145.8858  163.4460 H       1  UNL1        0.2106
     23 O         138.5546  138.2595  163.9021 O.3     1  UNL1       -0.4534
     24 C         138.9957  138.7840  165.2363 C.ar    1  UNL1        0.1453
     25 C         138.0050  138.9168  166.3548 C.ar    1  UNL1        0.0376
     26 C         138.4461  139.4413  167.6891 C.ar    1  UNL1        0.0076
     27 C         139.8780  139.8330  167.9049 C.ar    1  UNL1        0.0538
     28 C         140.8686  139.7001  166.7865 C.ar    1  UNL1        0.0076
     29 C         140.4275  139.1756  165.4522 C.ar    1  UNL1        0.0376
     30 C         140.3191  140.3575  169.2392 C.2     1  UNL1        0.2491
     31 O         140.4429  139.4254  170.4078 O.2     1  UNL1       -0.2699
     32 N         140.6365  141.8142  169.4048 N.am    1  UNL1       -0.2726
     33 C         141.0776  142.3387  170.7390 C.3     1  UNL1        0.1152
     34 C         140.5127  142.7463  168.2361 C.3     1  UNL1        0.1152
@<TRIPOS>BOND
     1    19    18    1
     2    19    20    1
     3    20    21    1
     4    19    17    1
     5    17     1    1
     6     1     2   ar
     7     2     3   ar
     8     3    23    1
     9    23    24    1
    10    24    25   ar
    11    25    26   ar
    12    26    27   ar
    13    27    30    1
    14    30    31    2
    15    30    32   am
    16    32    33    1
    17    32    34    1
    18    27    28   ar
    19    28    29   ar
    20     3     4   ar
    21     4     5   ar
    22     5     7    1
    23     7     8    2
    24     7     9   am
    25     9    11    1
    26    11    12   ar
    27    12    13   ar
    28    13    14   ar
    29    14    15    1
    30    14    16   ar
    31     5     6   ar
    32     6     1   ar
    33    29    24   ar
    34    16    11   ar
    35    21    22    1
    36     9    10    1
@<TRIPOS>MOLECULE
*****
 34 36 0 0 0
SMALL
GASTEIGER

@<TRIPOS>ATOM
      1 C         144.2761  140.9060  162.2312 C.ar    1  UNL1        0.1417
      2 C         143.6857  140.0613  163.3211 C.ar    1  UNL1        0.0743
      3 C         142.9667  138.7902  162.9787 C.ar    1  UNL1        0.1485
      4 C         142.8380  138.3637  161.5464 C.ar    1  UNL1        0.0422
      5 C         143.4284  139.2084  160.4565 C.ar    1  UNL1        0.0597
      6 C         144.1474  140.4795  160.7989 C.ar    1  UNL1        0.0416
      7 C         143.2998  138.7819  159.0241 C.2     1  UNL1        0.2508
      8 O         143.8260  139.6621  157.9294 O.2     1  UNL1       -0.2698
      9 N         142.6449  137.4754  158.6865 N.am    1  UNL1       -0.2644
     10 H         142.2995  136.8977  159.4050 H       1  UNL1        0.1566
     11 C         142.5163  137.0490  157.2541 C.ar    1  UNL1        0.1557
     12 C         143.2881  135.9478  156.5894 C.ar    1  UNL1        0.0564
     13 C         142.8421  135.8671  155.1594 C.ar    1  UNL1        0.0981
     14 N         141.7946  136.9183  154.9405 N.ar    1  UNL1       -0.2462
     15 C         141.0749  137.1912  153.6531 C.3     1  UNL1        0.1538
     16 N         141.5933  137.6487  156.2351 N.ar    1  UNL1       -0.1539
     17 O         144.9951  142.1771  162.5736 O.3     1  UNL1       -0.4765
     18 C         144.5927  143.1172  164.9619 C.3     1  UNL1        0.0500
     19 C         144.3513  143.1814  163.4829 C.3     1  UNL1        0.1951
     20 C         143.4660  144.2499  162.9131 C.3     1  UNL1        0.1807
     21 O         144.0102  145.6275  162.6766 O.3     1  UNL1       -0.3785
     22 H         144.2329  146.0376  163.5269 H       1  UNL1        0.2106
     23 O         142.3763  137.9455  164.0687 O.3     1  UNL1       -0.4534
     24 C         141.8927  138.5865  165.3357 C.ar    1  UNL1        0.1453
     25 C         142.8574  138.8683  166.4493 C.ar    1  UNL1        0.0376
     26 C         142.3738  139.5094  167.7162 C.ar    1  UNL1        0.0076
     27 C         140.9255  139.8687  167.8696 C.ar    1  UNL1        0.0538
     28 C         139.9609  139.5869  166.7560 C.ar    1  UNL1        0.0076
     29 C         140.4445  138.9458  165.4891 C.ar    1  UNL1        0.0376
     30 C         140.4419  140.5097  169.1365 C.2     1  UNL1        0.2491
     31 O         140.1111  139.6605  170.3279 O.2     1  UNL1       -0.2699
     32 N         140.2892  142.0001  169.2121 N.am    1  UNL1       -0.2726
     33 C         139.8056  142.6411  170.4791 C.3     1  UNL1        0.1152
     34 C         140.6200  142.8492  168.0208 C.3     1  UNL1        0.1152
@<TRIPOS>BOND
     1    19    18    1
     2    19    20    1
     3    20    21    1
     4    19    17    1
     5    17     1    1
     6     1     2   ar
     7     2     3   ar
     8     3    23    1
     9    23    24    1
    10    24    25   ar
    11    25    26   ar
    12    26    27   ar
    13    27    30    1
    14    30    31    2
    15    30    32   am
    16    32    33    1
    17    32    34    1
    18    27    28   ar
    19    28    29   ar
    20     3     4   ar
    21     4     5   ar
    22     5     7    1
    23     7     8    2
    24     7     9   am
    25     9    11    1
    26    11    12   ar
    27    12    13   ar
    28    13    14   ar
    29    14    15    1
    30    14    16   ar
    31     5     6   ar
    32     6     1   ar
    33    29    24   ar
    34    16    11   ar
    35    21    22    1
    36     9    10    1
@<TRIPOS>MOLECULE
*****
 34 36 0 0 0
SMALL
GASTEIGER

@<TRIPOS>ATOM
      1 C         141.5378  138.2965  161.2110 C.ar    1  UNL1        0.1417
      2 C         142.3827  138.4295  162.4432 C.ar    1  UNL1        0.0743
      3 C         143.7233  139.0977  162.3649 C.ar    1  UNL1        0.1485
      4 C         144.2191  139.6330  161.0543 C.ar    1  UNL1        0.0422
      5 C         143.3742  139.5001  159.8221 C.ar    1  UNL1        0.0597
      6 C         142.0335  138.8318  159.9004 C.ar    1  UNL1        0.0416
      7 C         143.8699  140.0354  158.5114 C.2     1  UNL1        0.2508
      8 O         143.8830  139.1538  157.2979 O.2     1  UNL1       -0.2698
      9 N         144.3526  141.4522  158.4143 N.am    1  UNL1       -0.2644
     10 H         144.3441  142.0309  159.2108 H       1  UNL1        0.1566
     11 C         144.8484  141.9875  157.1037 C.ar    1  UNL1        0.1557
     12 C         143.9944  142.4418  155.9572 C.ar    1  UNL1        0.0564
     13 C         144.9033  142.8976  154.8543 C.ar    1  UNL1        0.0981
     14 N         146.3190  142.7250  155.3193 N.ar    1  UNL1       -0.2462
     15 C         147.5521  143.0566  154.5323 C.3     1  UNL1        0.1538
     16 N         146.2850  142.1626  156.7094 N.ar    1  UNL1       -0.1539
     17 O         140.1971  137.6283  161.2893 O.3     1  UNL1       -0.4765
     18 C         138.7432  137.7271  163.4402 C.3     1  UNL1        0.0500
     19 C         139.0900  138.2587  162.0811 C.3     1  UNL1        0.1951
     20 C         138.3298  139.4207  161.5138 C.3     1  UNL1        0.1807
     21 O         136.8928  139.2549  161.1169 O.3     1  UNL1       -0.3785
     22 H         136.8329  138.6408  160.3684 H       1  UNL1        0.2106
     23 O         144.5682  139.2306  163.5972 O.3     1  UNL1       -0.4534
     24 C         143.9248  139.5277  164.9192 C.ar    1  UNL1        0.1453
     25 C         143.7503  138.4341  165.9311 C.ar    1  UNL1        0.0376
     26 C         143.1069  138.7312  167.2531 C.ar    1  UNL1        0.0076
     27 C         142.6379  140.1218  167.5633 C.ar    1  UNL1        0.0538
     28 C         142.8123  141.2153  166.5515 C.ar    1  UNL1        0.0076
     29 C         143.4558  140.9183  165.2295 C.ar    1  UNL1        0.0376
     30 C         141.9944  140.4189  168.8853 C.2     1  UNL1        0.2491
     31 O         142.8417  140.7988  170.0633 O.2     1  UNL1       -0.2699
     32 N         140.5036  140.3362  169.0292 N.am    1  UNL1       -0.2726
     33 C         139.8602  140.6332  170.3513 C.3     1  UNL1        0.1152
     34 C         139.6563  139.9563  167.8512 C.3     1  UNL1        0.1152
@<TRIPOS>BOND
     1    19    18    1
     2    19    20    1
     3    20    21    1
     4    19    17    1
     5    17     1    1
     6     1     2   ar
     7     2     3   ar
     8     3    23    1
     9    23    24    1
    10    24    25   ar
    11    25    26   ar
    12    26    27   ar
    13    27    30    1
    14    30    31    2
    15    30    32   am
    16    32    33    1
    17    32    34    1
    18    27    28   ar
    19    28    29   ar
    20     3     4   ar
    21     4     5   ar
    22     5     7    1
    23     7     8    2
    24     7     9   am
    25     9    11    1
    26    11    12   ar
    27    12    13   ar
    28    13    14   ar
    29    14    15    1
    30    14    16   ar
    31     5     6   ar
    32     6     1   ar
    33    29    24   ar
    34    16    11   ar
    35    21    22    1
    36     9    10    1
@<TRIPOS>MOLECULE
*****
 34 36 0 0 0
SMALL
GASTEIGER

@<TRIPOS>ATOM
      1 C         142.7526  143.0612  159.8332 C.ar    1  UNL1        0.1417
      2 C         142.4176  141.7572  160.4944 C.ar    1  UNL1        0.0743
      3 C         143.0122  140.4803  159.9787 C.ar    1  UNL1        0.1485
      4 C         143.9418  140.5074  158.8019 C.ar    1  UNL1        0.0422
      5 C         144.2768  141.8114  158.1407 C.ar    1  UNL1        0.0597
      6 C         143.6822  143.0883  158.6563 C.ar    1  UNL1        0.0416
      7 C         145.2065  141.8386  156.9638 C.2     1  UNL1        0.2508
      8 O         144.8369  141.1210  155.6994 O.2     1  UNL1       -0.2698
      9 N         146.5056  142.5832  157.0513 N.am    1  UNL1       -0.2644
     10 H         146.7481  143.0541  157.8811 H       1  UNL1        0.1566
     11 C         147.4353  142.6104  155.8743 C.ar    1  UNL1        0.1557
     12 C         147.2613  143.4331  154.6322 C.ar    1  UNL1        0.0564
     13 C         148.4206  143.1508  153.7231 C.ar    1  UNL1        0.0981
     14 N         149.3110  142.1536  154.4035 N.ar    1  UNL1       -0.2462
     15 C         150.5864  141.5894  153.8512 C.3     1  UNL1        0.1538
     16 N         148.7020  141.8196  155.7330 N.ar    1  UNL1       -0.1539
     17 O         142.1580  144.3382  160.3488 O.3     1  UNL1       -0.4765
     18 C         140.3789  144.5582  162.2294 C.3     1  UNL1        0.0500
     19 C         141.8144  144.4721  161.8028 C.3     1  UNL1        0.1951
     20 C         142.9063  144.5198  162.8302 C.3     1  UNL1        0.1807
     21 O         144.0201  145.5153  162.6953 O.3     1  UNL1       -0.3785
     22 H         144.5469  145.3064  161.9081 H       1  UNL1        0.2106
     23 O         142.6771  139.1762  160.6400 O.3     1  UNL1       -0.4534
     24 C         142.8424  139.0230  162.1230 C.ar    1  UNL1        0.1453
     25 C         141.8345  138.2422  162.9133 C.ar    1  UNL1        0.0376
     26 C         141.9997  138.0890  164.3963 C.ar    1  UNL1        0.0076
     27 C         143.1729  138.7167  165.0889 C.ar    1  UNL1        0.0538
     28 C         144.1807  139.4975  164.2987 C.ar    1  UNL1        0.0076
     29 C         144.0155  139.6507  162.8157 C.ar    1  UNL1        0.0376
     30 C         143.3382  138.5636  166.5719 C.2     1  UNL1        0.2491
     31 O         144.3184  137.5684  167.1185 O.2     1  UNL1       -0.2699
     32 N         142.5232  139.4056  167.5083 N.am    1  UNL1       -0.2726
     33 C         142.6885  139.2525  168.9913 C.3     1  UNL1        0.1152
     34 C         141.5430  140.4008  166.9617 C.3     1  UNL1        0.1152
@<TRIPOS>BOND
     1    19    18    1
     2    19    20    1
     3    20    21    1
     4    19    17    1
     5    17     1    1
     6     1     2   ar
     7     2     3   ar
     8     3    23    1
     9    23    24    1
    10    24    25   ar
    11    25    26   ar
    12    26    27   ar
    13    27    30    1
    14    30    31    2
    15    30    32   am
    16    32    33    1
    17    32    34    1
    18    27    28   ar
    19    28    29   ar
    20     3     4   ar
    21     4     5   ar
    22     5     7    1
    23     7     8    2
    24     7     9   am
    25     9    11    1
    26    11    12   ar
    27    12    13   ar
    28    13    14   ar
    29    14    15    1
    30    14    16   ar
    31     5     6   ar
    32     6     1   ar
    33    29    24   ar
    34    16    11   ar
    35    21    22    1
    36     9    10    1
@<TRIPOS>MOLECULE
*****
 34 36 0 0 0
SMALL
GASTEIGER

@<TRIPOS>ATOM
      1 C         143.3000  142.7489  160.6236 C.ar    1  UNL1        0.1417
      2 C         143.9425  142.2846  161.8970 C.ar    1  UNL1        0.0743
      3 C         144.3641  140.8528  162.0456 C.ar    1  UNL1        0.1485
      4 C         144.1433  139.8853  160.9209 C.ar    1  UNL1        0.0422
      5 C         143.5008  140.3496  159.6475 C.ar    1  UNL1        0.0597
      6 C         143.0792  141.7814  159.4988 C.ar    1  UNL1        0.0416
      7 C         143.2800  139.3821  158.5226 C.2     1  UNL1        0.2508
      8 O         144.0157  139.5573  157.2273 O.2     1  UNL1       -0.2698
      9 N         142.3234  138.2394  158.6931 N.am    1  UNL1       -0.2644
     10 H         141.8405  138.1244  159.5433 H       1  UNL1        0.1566
     11 C         142.1025  137.2718  157.5683 C.ar    1  UNL1        0.1557
     12 C         140.9492  137.2833  156.6092 C.ar    1  UNL1        0.0564
     13 C         141.1301  136.1416  155.6532 C.ar    1  UNL1        0.0981
     14 N         142.3951  135.4246  156.0215 N.ar    1  UNL1       -0.2462
     15 C         142.9600  134.2205  155.3281 C.3     1  UNL1        0.1538
     16 N         142.9961  136.1231  157.2051 N.ar    1  UNL1       -0.1539
     17 O         142.8784  144.1807  160.4749 O.3     1  UNL1       -0.4765
     18 C         140.4498  144.9251  159.9290 C.3     1  UNL1        0.0500
     19 C         141.5179  144.6136  160.9351 C.3     1  UNL1        0.1951
     20 C         141.2254  144.7349  162.4013 C.3     1  UNL1        0.1807
     21 O         141.2913  146.0755  163.0708 O.3     1  UNL1       -0.3785
     22 H         142.2063  146.3974  163.0606 H       1  UNL1        0.2106
     23 O         145.0066  140.3885  163.3191 O.3     1  UNL1       -0.4534
     24 C         144.2080  140.3404  164.5879 C.ar    1  UNL1        0.1453
     25 C         143.8536  139.0182  165.2014 C.ar    1  UNL1        0.0376
     26 C         143.0550  138.9701  166.4702 C.ar    1  UNL1        0.0076
     27 C         142.6108  140.2442  167.1255 C.ar    1  UNL1        0.0538
     28 C         142.9652  141.5663  166.5120 C.ar    1  UNL1        0.0076
     29 C         143.7638  141.6144  165.2432 C.ar    1  UNL1        0.0376
     30 C         141.8121  140.1962  168.3943 C.2     1  UNL1        0.2491
     31 O         142.5086  140.0389  169.7134 O.2     1  UNL1       -0.2699
     32 N         140.3169  140.3054  168.3440 N.am    1  UNL1       -0.2726
     33 C         139.5183  140.2573  169.6128 C.3     1  UNL1        0.1152
     34 C         139.6204  140.4626  167.0249 C.3     1  UNL1        0.1152
@<TRIPOS>BOND
     1    19    18    1
     2    19    20    1
     3    20    21    1
     4    19    17    1
     5    17     1    1
     6     1     2   ar
     7     2     3   ar
     8     3    23    1
     9    23    24    1
    10    24    25   ar
    11    25    26   ar
    12    26    27   ar
    13    27    30    1
    14    30    31    2
    15    30    32   am
    16    32    33    1
    17    32    34    1
    18    27    28   ar
    19    28    29   ar
    20     3     4   ar
    21     4     5   ar
    22     5     7    1
    23     7     8    2
    24     7     9   am
    25     9    11    1
    26    11    12   ar
    27    12    13   ar
    28    13    14   ar
    29    14    15    1
    30    14    16   ar
    31     5     6   ar
    32     6     1   ar
    33    29    24   ar
    34    16    11   ar
    35    21    22    1
    36     9    10    1
@<TRIPOS>MOLECULE
*****
 34 36 0 0 0
SMALL
GASTEIGER

@<TRIPOS>ATOM
      1 C         141.2870  141.1237  158.5450 C.ar    1  UNL1        0.1417
      2 C         140.0457  140.8862  159.3529 C.ar    1  UNL1        0.0743
      3 C         139.4199  139.5233  159.3832 C.ar    1  UNL1        0.1485
      4 C         140.0353  138.3979  158.6055 C.ar    1  UNL1        0.0422
      5 C         141.2766  138.6355  157.7976 C.ar    1  UNL1        0.0597
      6 C         141.9024  139.9983  157.7674 C.ar    1  UNL1        0.0416
      7 C         141.8921  137.5101  157.0199 C.2     1  UNL1        0.2508
      8 O         143.3812  137.4392  156.8544 O.2     1  UNL1       -0.2698
      9 N         141.0184  136.4557  156.4077 N.am    1  UNL1       -0.2644
     10 H         140.0410  136.5022  156.5163 H       1  UNL1        0.1566
     11 C         141.6339  135.3303  155.6299 C.ar    1  UNL1        0.1557
     12 C         141.5684  135.1473  154.1426 C.ar    1  UNL1        0.0564
     13 C         142.3170  133.8942  153.7964 C.ar    1  UNL1        0.0981
     14 N         142.8450  133.3030  155.0699 N.ar    1  UNL1       -0.2462
     15 C         143.6533  132.0451  155.1892 C.3     1  UNL1        0.1538
     16 N         142.4229  134.1905  156.2030 N.ar    1  UNL1       -0.1539
     17 O         141.9128  142.4865  158.5148 O.3     1  UNL1       -0.4765
     18 C         143.8636  142.7486  160.2106 C.3     1  UNL1        0.0500
     19 C         142.4688  143.0846  159.7730 C.3     1  UNL1        0.1951
     20 C         141.6299  144.0188  160.5938 C.3     1  UNL1        0.1807
     21 O         141.8370  145.5008  160.4894 O.3     1  UNL1       -0.3785
     22 H         142.7157  145.7292  160.8309 H       1  UNL1        0.2106
     23 O         138.1785  139.2858  160.1912 O.3     1  UNL1       -0.4534
     24 C         138.2456  139.2962  161.6896 C.ar    1  UNL1        0.1453
     25 C         137.7452  140.4856  162.4545 C.ar    1  UNL1        0.0376
     26 C         137.8122  140.4960  163.9530 C.ar    1  UNL1        0.0076
     27 C         138.3797  139.3170  164.6865 C.ar    1  UNL1        0.0538
     28 C         138.8801  138.1277  163.9216 C.ar    1  UNL1        0.0076
     29 C         138.8130  138.1173  162.4232 C.ar    1  UNL1        0.0376
     30 C         138.4467  139.3274  166.1850 C.2     1  UNL1        0.2491
     31 O         137.3627  138.6728  166.9888 O.2     1  UNL1       -0.2699
     32 N         139.5980  139.9925  166.8796 N.am    1  UNL1       -0.2726
     33 C         139.6650  140.0029  168.3781 C.3     1  UNL1        0.1152
     34 C         140.6820  140.6472  166.0758 C.3     1  UNL1        0.1152
@<TRIPOS>BOND
     1    19    18    1
     2    19    20    1
     3    20    21    1
     4    19    17    1
     5    17     1    1
     6     1     2   ar
     7     2     3   ar
     8     3    23    1
     9    23    24    1
    10    24    25   ar
    11    25    26   ar
    12    26    27   ar
    13    27    30    1
    14    30    31    2
    15    30    32   am
    16    32    33    1
    17    32    34    1
    18    27    28   ar
    19    28    29   ar
    20     3     4   ar
    21     4     5   ar
    22     5     7    1
    23     7     8    2
    24     7     9   am
    25     9    11    1
    26    11    12   ar
    27    12    13   ar
    28    13    14   ar
    29    14    15    1
    30    14    16   ar
    31     5     6   ar
    32     6     1   ar
    33    29    24   ar
    34    16    11   ar
    35    21    22    1
    36     9    10    1
@<TRIPOS>MOLECULE
*****
 34 36 0 0 0
SMALL
GASTEIGER

@<TRIPOS>ATOM
      1 C         140.7905  140.7696  160.7269 C.ar    1  UNL1        0.1417
      2 C         141.7542  141.0725  161.8357 C.ar    1  UNL1        0.0743
      3 C         143.0078  140.2619  161.9822 C.ar    1  UNL1        0.1485
      4 C         143.2976  139.1484  161.0199 C.ar    1  UNL1        0.0422
      5 C         142.3339  138.8454  159.9112 C.ar    1  UNL1        0.0597
      6 C         141.0803  139.6560  159.7646 C.ar    1  UNL1        0.0416
      7 C         142.6237  137.7319  158.9488 C.2     1  UNL1        0.2508
      8 O         143.3884  136.5253  159.4063 O.2     1  UNL1       -0.2698
      9 N         142.1489  137.8249  157.5290 N.am    1  UNL1       -0.2644
     10 H         141.6470  138.6169  157.2288 H       1  UNL1        0.1566
     11 C         142.4387  136.7114  156.5667 C.ar    1  UNL1        0.1557
     12 C         143.7873  136.3468  156.0205 C.ar    1  UNL1        0.0564
     13 C         143.6130  135.1770  155.0979 C.ar    1  UNL1        0.0981
     14 N         142.1565  134.8187  155.0739 N.ar    1  UNL1       -0.2462
     15 C         141.5350  133.7072  154.2813 C.3     1  UNL1        0.1538
     16 N         141.4308  135.7670  155.9816 N.ar    1  UNL1       -0.1539
     17 O         139.5369  141.5802  160.5804 O.3     1  UNL1       -0.4765
     18 C         137.5540  139.9096  160.7462 C.3     1  UNL1        0.0500
     19 C         138.2702  141.1294  161.2455 C.3     1  UNL1        0.1951
     20 C         137.7197  141.8984  162.4098 C.3     1  UNL1        0.1807
     21 O         136.5969  141.3260  163.2232 O.3     1  UNL1       -0.3785
     22 H         135.7984  141.2669  162.6756 H       1  UNL1        0.2106
     23 O         143.9715  140.5648  163.0911 O.3     1  UNL1       -0.4534
     24 C         143.5327  140.4430  164.5203 C.ar    1  UNL1        0.1453
     25 C         143.3730  139.0876  165.1428 C.ar    1  UNL1        0.0376
     26 C         142.9342  138.9657  166.5720 C.ar    1  UNL1        0.0076
     27 C         142.6552  140.1993  167.3787 C.ar    1  UNL1        0.0538
     28 C         142.8150  141.5545  166.7561 C.ar    1  UNL1        0.0076
     29 C         143.2537  141.6764  165.3269 C.ar    1  UNL1        0.0376
     30 C         142.2164  140.0774  168.8079 C.2     1  UNL1        0.2491
     31 O         143.2392  139.9954  169.9020 O.2     1  UNL1       -0.2699
     32 N         140.7548  140.0375  169.1429 N.am    1  UNL1       -0.2726
     33 C         140.3160  139.9157  170.5721 C.3     1  UNL1        0.1152
     34 C         139.7321  140.1196  168.0488 C.3     1  UNL1        0.1152
@<TRIPOS>BOND
     1    19    18    1
     2    19    20    1
     3    20    21    1
     4    19    17    1
     5    17     1    1
     6     1     2   ar
     7     2     3   ar
     8     3    23    1
     9    23    24    1
    10    24    25   ar
    11    25    26   ar
    12    26    27   ar
    13    27    30    1
    14    30    31    2
    15    30    32   am
    16    32    33    1
    17    32    34    1
    18    27    28   ar
    19    28    29   ar
    20     3     4   ar
    21     4     5   ar
    22     5     7    1
    23     7     8    2
    24     7     9   am
    25     9    11    1
    26    11    12   ar
    27    12    13   ar
    28    13    14   ar
    29    14    15    1
    30    14    16   ar
    31     5     6   ar
    32     6     1   ar
    33    29    24   ar
    34    16    11   ar
    35    21    22    1
    36     9    10    1
