@<TRIPOS>MOLECULE
*****
 32 35 0 0 0
SMALL
GASTEIGER

@<TRIPOS>ATOM
      1 C         141.1907  139.8089  167.1038 C.ar    1  UNL1        0.0458
      2 C         141.2380  139.4167  168.5509 C.ar    1  UNL1        0.0145
      3 C         140.9377  140.4320  169.6134 C.ar    1  UNL1        0.0073
      4 C         140.5901  141.8396  169.2289 C.ar    1  UNL1        0.0708
      5 C         140.5428  142.2318  167.7818 C.ar    1  UNL1        0.0865
      6 N         140.2332  143.5338  167.1044 N.2     1  UNL1       -0.2455
      7 C         140.3421  143.3232  165.6233 C.2     1  UNL1        0.0777
      8 C         140.1468  144.2505  164.4606 C.2     1  UNL1        0.0186
      9 C         140.3285  143.7456  163.0599 C.2     1  UNL1        0.0006
     10 C         140.7054  142.3134  162.8218 C.2     1  UNL1       -0.0212
     11 C         140.9008  141.3861  163.9845 C.3     1  UNL1        0.0539
     12 C         140.7191  141.8910  165.3852 C.2     1  UNL1        0.0025
     13 C         140.8431  141.2165  166.7193 C.ar    1  UNL1        0.0287
     14 C         140.1331  144.6729  161.8971 C.ar    1  UNL1        0.0394
     15 C         139.5549  146.0556  161.9594 C.ar    1  UNL1        0.1216
     16 N         139.5461  146.6175  160.5687 N.ar    1  UNL1       -0.1676
     17 N         140.1190  145.5821  159.6468 N.ar    1  UNL1       -0.2473
     18 C         140.2976  145.7237  158.1642 C.3     1  UNL1        0.1538
     19 C         140.4817  144.3803  160.4678 C.ar    1  UNL1        0.0967
     20 C         140.2898  142.8549  170.2914 C.2     1  UNL1        0.2442
     21 N         140.2162  144.3108  169.9381 N.am    1  UNL1       -0.3253
     22 O         140.0630  142.4142  171.7072 O.2     1  UNL1       -0.2703
     23 H         140.3650  144.6000  169.0089 H       1  UNL1        0.1453
     24 H         140.0191  144.9771  170.6355 H       1  UNL1        0.1453
     25 N         141.4911  138.7935  166.0413 N.pl3   1  UNL1       -0.3340
     26 H         140.7588  138.2795  165.6306 H       1  UNL1        0.1468
     27 C         143.9246  138.0679  166.5903 C.3     1  UNL1        0.0212
     28 C         142.9073  138.5614  165.6047 C.3     1  UNL1        0.0690
     29 C         143.3061  138.8228  164.1826 C.3     1  UNL1        0.0164
     30 C         144.4540  139.6627  164.6589 C.3     1  UNL1        0.0016
     31 C         142.1582  137.9829  163.7063 C.3     1  UNL1        0.0016
     32 C         143.7050  139.0842  162.7604 C.3     1  UNL1        0.0016
@<TRIPOS>BOND
     1    28    27    1
     2    28    25    1
     3    25     1    1
     4     1     2   ar
     5     2     3   ar
     6     3     4   ar
     7     4    20    1
     8    20    21   am
     9    20    22    2
    10     4     5   ar
    11     5     6    2
    12     6     7    1
    13     7     8    2
    14     8     9    1
    15     9    14    1
    16    14    15   ar
    17    15    16   ar
    18    16    17   ar
    19    17    18    1
    20    17    19   ar
    21     9    10    2
    22    10    11    1
    23    11    12    1
    24    12    13    2
    25    28    29    1
    26    29    30    1
    27    29    31    1
    28    29    32    1
    29    13     1   ar
    30    13     5   ar
    31    12     7    1
    32    19    14   ar
    33    25    26    1
    34    21    23    1
    35    21    24    1
@<TRIPOS>MOLECULE
*****
 32 35 0 0 0
SMALL
GASTEIGER

@<TRIPOS>ATOM
      1 C         138.5478  141.2967  163.3335 C.ar    1  UNL1        0.0458
      2 C         138.0399  142.4327  164.1712 C.ar    1  UNL1        0.0145
      3 C         138.4794  143.8364  163.8770 C.ar    1  UNL1        0.0073
      4 C         139.4267  144.1041  162.7453 C.ar    1  UNL1        0.0708
      5 C         139.9346  142.9681  161.9077 C.ar    1  UNL1        0.0865
      6 N         140.8694  142.9250  160.7354 N.2     1  UNL1       -0.2455
      7 C         141.0077  141.4948  160.3050 C.2     1  UNL1        0.0777
      8 C         141.7973  140.8495  159.2050 C.2     1  UNL1        0.0186
      9 C         141.7376  139.3633  159.0113 C.2     1  UNL1        0.0006
     10 C         140.8882  138.5223  159.9176 C.2     1  UNL1       -0.0212
     11 C         140.0986  139.1676  161.0176 C.3     1  UNL1        0.0539
     12 C         140.1583  140.6538  161.2113 C.2     1  UNL1        0.0025
     13 C         139.4951  141.5644  162.2018 C.ar    1  UNL1        0.0287
     14 C         142.5272  138.7179  157.9112 C.ar    1  UNL1        0.0394
     15 C         143.4220  139.4247  156.9367 C.ar    1  UNL1        0.1216
     16 N         144.0085  138.3961  156.0158 N.ar    1  UNL1       -0.1676
     17 N         143.4761  137.0536  156.4212 N.ar    1  UNL1       -0.2473
     18 C         143.8019  135.7424  155.7695 C.3     1  UNL1        0.1538
     19 C         142.5606  137.2525  157.5926 C.ar    1  UNL1        0.0967
     20 C         139.8662  145.5078  162.4512 C.2     1  UNL1        0.2442
     21 N         141.0490  146.0889  163.1674 N.am    1  UNL1       -0.3253
     22 O         139.1227  146.3303  161.4408 O.2     1  UNL1       -0.2703
     23 H         141.5370  145.5491  163.8305 H       1  UNL1        0.1453
     24 H         141.3374  147.0102  162.9743 H       1  UNL1        0.1453
     25 N         138.1082  139.8930  163.6277 N.pl3   1  UNL1       -0.3340
     26 H         137.4268  139.4619  163.0628 H       1  UNL1        0.1468
     27 C         138.1352  139.3107  166.1595 C.3     1  UNL1        0.0212
     28 C         138.7070  139.1461  164.7826 C.3     1  UNL1        0.0690
     29 C         139.8774  138.2347  164.5606 C.3     1  UNL1        0.0164
     30 C         140.7459  139.1534  165.3678 C.3     1  UNL1        0.0016
     31 C         139.0088  137.3159  163.7534 C.3     1  UNL1        0.0016
     32 C         141.0478  137.3232  164.3386 C.3     1  UNL1        0.0016
@<TRIPOS>BOND
     1    28    27    1
     2    28    25    1
     3    25     1    1
     4     1     2   ar
     5     2     3   ar
     6     3     4   ar
     7     4    20    1
     8    20    21   am
     9    20    22    2
    10     4     5   ar
    11     5     6    2
    12     6     7    1
    13     7     8    2
    14     8     9    1
    15     9    14    1
    16    14    15   ar
    17    15    16   ar
    18    16    17   ar
    19    17    18    1
    20    17    19   ar
    21     9    10    2
    22    10    11    1
    23    11    12    1
    24    12    13    2
    25    28    29    1
    26    29    30    1
    27    29    31    1
    28    29    32    1
    29    13     1   ar
    30    13     5   ar
    31    12     7    1
    32    19    14   ar
    33    25    26    1
    34    21    23    1
    35    21    24    1
@<TRIPOS>MOLECULE
*****
 32 35 0 0 0
SMALL
GASTEIGER

@<TRIPOS>ATOM
      1 C         138.9266  141.2020  161.2986 C.ar    1  UNL1        0.0458
      2 C         138.8364  141.6965  159.8852 C.ar    1  UNL1        0.0145
      3 C         139.2840  143.0877  159.5474 C.ar    1  UNL1        0.0073
      4 C         139.8217  143.9845  160.6228 C.ar    1  UNL1        0.0708
      5 C         139.9119  143.4901  162.0361 C.ar    1  UNL1        0.0865
      6 N         140.3950  144.1409  163.2983 N.2     1  UNL1       -0.2455
      7 C         140.2460  143.1519  164.4162 C.2     1  UNL1        0.0777
      8 C         140.5598  143.2375  165.8805 C.2     1  UNL1        0.0186
      9 C         140.2984  142.0611  166.7735 C.2     1  UNL1        0.0006
     10 C         139.7232  140.7990  166.2023 C.2     1  UNL1       -0.0212
     11 C         139.4095  140.7133  164.7380 C.3     1  UNL1        0.0539
     12 C         139.6708  141.8898  163.8449 C.2     1  UNL1        0.0025
     13 C         139.4644  142.0988  162.3740 C.ar    1  UNL1        0.0287
     14 C         140.6121  142.1466  168.2379 C.ar    1  UNL1        0.0394
     15 C         140.3651  143.3308  169.1248 C.ar    1  UNL1        0.1216
     16 N         140.8283  142.9791  170.5074 N.ar    1  UNL1       -0.1676
     17 N         141.3617  141.5774  170.4751 N.ar    1  UNL1       -0.2473
     18 C         141.9290  140.8228  171.6407 C.3     1  UNL1        0.1538
     19 C         141.2280  141.0630  169.0724 C.ar    1  UNL1        0.0967
     20 C         140.2692  145.3758  160.2849 C.2     1  UNL1        0.2442
     21 N         141.5896  145.5953  159.6081 N.am    1  UNL1       -0.3253
     22 O         139.3962  146.5476  160.6240 O.2     1  UNL1       -0.2703
     23 H         142.1626  144.8262  159.3856 H       1  UNL1        0.1453
     24 H         141.8833  146.5084  159.3864 H       1  UNL1        0.1453
     25 N         138.4791  139.8107  161.6364 N.pl3   1  UNL1       -0.3340
     26 H         137.6038  139.6651  162.0629 H       1  UNL1        0.1468
     27 C         139.5285  138.1817  159.9058 C.3     1  UNL1        0.0212
     28 C         139.3652  138.6413  161.3243 C.3     1  UNL1        0.0690
     29 C         140.0879  137.9316  162.4305 C.3     1  UNL1        0.0164
     30 C         138.7761  137.6199  163.0876 C.3     1  UNL1        0.0016
     31 C         141.3998  138.2434  161.7734 C.3     1  UNL1        0.0016
     32 C         140.8107  137.2219  163.5368 C.3     1  UNL1        0.0016
@<TRIPOS>BOND
     1    28    27    1
     2    28    25    1
     3    25     1    1
     4     1     2   ar
     5     2     3   ar
     6     3     4   ar
     7     4    20    1
     8    20    21   am
     9    20    22    2
    10     4     5   ar
    11     5     6    2
    12     6     7    1
    13     7     8    2
    14     8     9    1
    15     9    14    1
    16    14    15   ar
    17    15    16   ar
    18    16    17   ar
    19    17    18    1
    20    17    19   ar
    21     9    10    2
    22    10    11    1
    23    11    12    1
    24    12    13    2
    25    28    29    1
    26    29    30    1
    27    29    31    1
    28    29    32    1
    29    13     1   ar
    30    13     5   ar
    31    12     7    1
    32    19    14   ar
    33    25    26    1
    34    21    23    1
    35    21    24    1
@<TRIPOS>MOLECULE
*****
 32 35 0 0 0
SMALL
GASTEIGER

@<TRIPOS>ATOM
      1 C         141.2306  142.9022  165.4646 C.ar    1  UNL1        0.0458
      2 C         140.9825  142.5882  166.9103 C.ar    1  UNL1        0.0145
      3 C         141.5615  141.3449  167.5178 C.ar    1  UNL1        0.0073
      4 C         142.3885  140.4157  166.6797 C.ar    1  UNL1        0.0708
      5 C         142.6366  140.7297  165.2340 C.ar    1  UNL1        0.0865
      6 N         143.4058  140.0077  164.1677 N.2     1  UNL1       -0.2455
      7 C         143.3023  140.8047  162.9012 C.2     1  UNL1        0.0777
      8 C         143.8591  140.5814  161.5264 C.2     1  UNL1        0.0186
      9 C         143.5827  141.5727  160.4352 C.2     1  UNL1        0.0006
     10 C         142.7494  142.7874  160.7188 C.2     1  UNL1       -0.0212
     11 C         142.1926  143.0107  162.0935 C.3     1  UNL1        0.0539
     12 C         142.4691  142.0194  163.1848 C.2     1  UNL1        0.0025
     13 C         142.0576  141.9730  164.6265 C.ar    1  UNL1        0.0287
     14 C         144.1395  141.3494  159.0603 C.ar    1  UNL1        0.0394
     15 C         144.0005  140.0979  158.2454 C.ar    1  UNL1        0.1216
     16 N         144.7081  140.3135  156.9405 N.ar    1  UNL1       -0.1676
     17 N         145.2845  141.6984  156.9490 N.ar    1  UNL1       -0.2473
     18 C         146.0736  142.3317  155.8417 C.3     1  UNL1        0.1538
     19 C         144.9330  142.3386  158.2591 C.ar    1  UNL1        0.0967
     20 C         142.9674  139.1724  167.2872 C.2     1  UNL1        0.2442
     21 N         143.6071  138.1370  166.4105 N.am    1  UNL1       -0.3253
     22 O         142.9066  138.9645  168.7715 O.2     1  UNL1       -0.2703
     23 H         143.6469  138.2734  165.4363 H       1  UNL1        0.1453
     24 H         143.9870  137.3210  166.8092 H       1  UNL1        0.1453
     25 N         140.6516  144.1456  164.8571 N.pl3   1  UNL1       -0.3340
     26 H         141.2468  144.8704  164.5577 H       1  UNL1        0.1468
     27 C         138.3741  145.0347  165.7357 C.3     1  UNL1        0.0212
     28 C         139.1657  144.2846  164.7059 C.3     1  UNL1        0.0690
     29 C         138.4716  143.6734  163.5250 C.3     1  UNL1        0.0164
     30 C         139.0733  144.7171  162.6312 C.3     1  UNL1        0.0016
     31 C         137.8699  142.6298  164.4188 C.3     1  UNL1        0.0016
     32 C         137.7774  143.0623  162.3441 C.3     1  UNL1        0.0016
@<TRIPOS>BOND
     1    28    27    1
     2    28    25    1
     3    25     1    1
     4     1     2   ar
     5     2     3   ar
     6     3     4   ar
     7     4    20    1
     8    20    21   am
     9    20    22    2
    10     4     5   ar
    11     5     6    2
    12     6     7    1
    13     7     8    2
    14     8     9    1
    15     9    14    1
    16    14    15   ar
    17    15    16   ar
    18    16    17   ar
    19    17    18    1
    20    17    19   ar
    21     9    10    2
    22    10    11    1
    23    11    12    1
    24    12    13    2
    25    28    29    1
    26    29    30    1
    27    29    31    1
    28    29    32    1
    29    13     1   ar
    30    13     5   ar
    31    12     7    1
    32    19    14   ar
    33    25    26    1
    34    21    23    1
    35    21    24    1
@<TRIPOS>MOLECULE
*****
 32 35 0 0 0
SMALL
GASTEIGER

@<TRIPOS>ATOM
      1 C         140.0424  141.9457  165.1721 C.ar    1  UNL1        0.0458
      2 C         139.9768  141.6630  166.6437 C.ar    1  UNL1        0.0145
      3 C         139.3155  140.4107  167.1381 C.ar    1  UNL1        0.0073
      4 C         138.7198  139.4411  166.1608 C.ar    1  UNL1        0.0708
      5 C         138.7855  139.7239  164.6891 C.ar    1  UNL1        0.0865
      6 N         138.2901  138.9598  163.4972 N.2     1  UNL1       -0.2455
      7 C         138.6452  139.7399  162.2661 C.2     1  UNL1        0.0777
      8 C         138.4100  139.4764  160.8083 C.2     1  UNL1        0.0186
      9 C         138.8897  140.4592  159.7817 C.2     1  UNL1        0.0006
     10 C         139.6046  141.7054  160.2128 C.2     1  UNL1       -0.0212
     11 C         139.8398  141.9689  161.6706 C.3     1  UNL1        0.0539
     12 C         139.3601  140.9861  162.6973 C.2     1  UNL1        0.0025
     13 C         139.4468  140.9762  164.1948 C.ar    1  UNL1        0.0287
     14 C         138.6545  140.1958  158.3238 C.ar    1  UNL1        0.0394
     15 C         139.3522  139.1616  157.4909 C.ar    1  UNL1        0.1216
     16 N         138.8092  139.2470  156.0953 N.ar    1  UNL1       -0.1676
     17 N         137.7758  140.3339  156.0656 N.ar    1  UNL1       -0.2473
     18 C         136.9782  140.7597  154.8687 C.3     1  UNL1        0.1538
     19 C         137.6802  140.9203  157.4429 C.ar    1  UNL1        0.0967
     20 C         138.0585  138.1888  166.6551 C.2     1  UNL1        0.2442
     21 N         138.2030  136.9101  165.8846 N.am    1  UNL1       -0.3253
     22 O         137.2527  138.2153  167.9201 O.2     1  UNL1       -0.2703
     23 H         138.7319  136.8926  165.0545 H       1  UNL1        0.1453
     24 H         137.7689  136.0881  166.2091 H       1  UNL1        0.1453
     25 N         140.7038  143.1981  164.6777 N.pl3   1  UNL1       -0.3340
     26 H         141.6790  143.2204  164.5451 H       1  UNL1        0.1468
     27 C         138.8677  144.8948  165.3847 C.3     1  UNL1        0.0212
     28 C         139.8791  144.4166  164.3856 C.3     1  UNL1        0.0690
     29 C         140.0658  145.1567  163.0944 C.3     1  UNL1        0.0164
     30 C         141.5346  145.2750  163.3746 C.3     1  UNL1        0.0016
     31 C         138.5969  145.0384  162.8142 C.3     1  UNL1        0.0016
     32 C         140.2525  145.8970  161.8032 C.3     1  UNL1        0.0016
@<TRIPOS>BOND
     1    28    27    1
     2    28    25    1
     3    25     1    1
     4     1     2   ar
     5     2     3   ar
     6     3     4   ar
     7     4    20    1
     8    20    21   am
     9    20    22    2
    10     4     5   ar
    11     5     6    2
    12     6     7    1
    13     7     8    2
    14     8     9    1
    15     9    14    1
    16    14    15   ar
    17    15    16   ar
    18    16    17   ar
    19    17    18    1
    20    17    19   ar
    21     9    10    2
    22    10    11    1
    23    11    12    1
    24    12    13    2
    25    28    29    1
    26    29    30    1
    27    29    31    1
    28    29    32    1
    29    13     1   ar
    30    13     5   ar
    31    12     7    1
    32    19    14   ar
    33    25    26    1
    34    21    23    1
    35    21    24    1
@<TRIPOS>MOLECULE
*****
 32 35 0 0 0
SMALL
GASTEIGER

@<TRIPOS>ATOM
      1 C         140.7976  140.9607  165.9384 C.ar    1  UNL1        0.0458
      2 C         140.2032  140.9325  167.3154 C.ar    1  UNL1        0.0145
      3 C         139.1526  139.9182  167.6581 C.ar    1  UNL1        0.0073
      4 C         138.6964  138.9321  166.6240 C.ar    1  UNL1        0.0708
      5 C         139.2908  138.9603  165.2470 C.ar    1  UNL1        0.0865
      6 N         139.0421  138.1210  164.0290 N.2     1  UNL1       -0.2455
      7 C         139.9389  138.6165  162.9335 C.2     1  UNL1        0.0777
      8 C         140.1280  138.1725  161.5133 C.2     1  UNL1        0.0186
      9 C         141.1202  138.8741  160.6340 C.2     1  UNL1        0.0006
     10 C         141.9233  140.0198  161.1750 C.2     1  UNL1       -0.0212
     11 C         141.7341  140.4638  162.5952 C.3     1  UNL1        0.0539
     12 C         140.7419  139.7621  163.4744 C.2     1  UNL1        0.0025
     13 C         140.3414  139.9746  164.9043 C.ar    1  UNL1        0.0287
     14 C         141.3094  138.4302  159.2137 C.ar    1  UNL1        0.0394
     15 C         140.2505  138.3970  158.1518 C.ar    1  UNL1        0.1216
     16 N         140.8774  137.8878  156.8878 N.ar    1  UNL1       -0.1676
     17 N         142.3238  137.6062  157.1685 N.ar    1  UNL1       -0.2473
     18 C         143.3270  137.0815  156.1845 C.3     1  UNL1        0.1538
     19 C         142.5908  137.9414  158.6060 C.ar    1  UNL1        0.0967
     20 C         137.6458  137.9178  166.9667 C.2     1  UNL1        0.2442
     21 N         137.5853  136.6188  166.2194 N.am    1  UNL1       -0.3253
     22 O         136.6557  138.2027  168.0570 O.2     1  UNL1       -0.2703
     23 H         138.2352  136.4319  165.5038 H       1  UNL1        0.1453
     24 H         136.8958  135.9531  166.4443 H       1  UNL1        0.1453
     25 N         141.8482  141.9750  165.5957 N.pl3   1  UNL1       -0.3340
     26 H         142.7931  141.7952  165.8057 H       1  UNL1        0.1468
     27 C         140.0309  143.7207  164.9636 C.3     1  UNL1        0.0212
     28 C         141.4591  143.2633  164.9331 C.3     1  UNL1        0.0690
     29 C         142.4980  144.0940  164.2400 C.3     1  UNL1        0.0164
     30 C         143.5658  143.1519  164.7115 C.3     1  UNL1        0.0016
     31 C         141.4302  145.0360  163.7685 C.3     1  UNL1        0.0016
     32 C         143.5370  144.9247  163.5469 C.3     1  UNL1        0.0016
@<TRIPOS>BOND
     1    28    27    1
     2    28    25    1
     3    25     1    1
     4     1     2   ar
     5     2     3   ar
     6     3     4   ar
     7     4    20    1
     8    20    21   am
     9    20    22    2
    10     4     5   ar
    11     5     6    2
    12     6     7    1
    13     7     8    2
    14     8     9    1
    15     9    14    1
    16    14    15   ar
    17    15    16   ar
    18    16    17   ar
    19    17    18    1
    20    17    19   ar
    21     9    10    2
    22    10    11    1
    23    11    12    1
    24    12    13    2
    25    28    29    1
    26    29    30    1
    27    29    31    1
    28    29    32    1
    29    13     1   ar
    30    13     5   ar
    31    12     7    1
    32    19    14   ar
    33    25    26    1
    34    21    23    1
    35    21    24    1
@<TRIPOS>MOLECULE
*****
 32 35 0 0 0
SMALL
GASTEIGER

@<TRIPOS>ATOM
      1 C         141.3374  142.6428  165.4468 C.ar    1  UNL1        0.0458
      2 C         141.3075  142.6592  166.9465 C.ar    1  UNL1        0.0145
      3 C         141.8484  141.4936  167.7202 C.ar    1  UNL1        0.0073
      4 C         142.4192  140.3115  166.9943 C.ar    1  UNL1        0.0708
      5 C         142.4491  140.2951  165.4947 C.ar    1  UNL1        0.0865
      6 N         142.9461  139.2769  164.5118 N.2     1  UNL1       -0.2455
      7 C         142.7124  139.8132  163.1305 C.2     1  UNL1        0.0777
      8 C         143.0007  139.2469  161.7718 C.2     1  UNL1        0.0186
      9 C         142.6476  140.0304  160.5424 C.2     1  UNL1        0.0006
     10 C         142.0061  141.3801  160.6717 C.2     1  UNL1       -0.0212
     11 C         141.7177  141.9464  162.0304 C.3     1  UNL1        0.0539
     12 C         142.0709  141.1629  163.2598 C.2     1  UNL1        0.0025
     13 C         141.9082  141.4608  164.7209 C.ar    1  UNL1        0.0287
     14 C         142.9360  139.4641  159.1836 C.ar    1  UNL1        0.0394
     15 C         143.7018  140.1457  158.0888 C.ar    1  UNL1        0.1216
     16 N         143.7483  139.2197  156.9097 N.ar    1  UNL1       -0.1676
     17 N         143.0111  137.9656  157.2759 N.ar    1  UNL1       -0.2473
     18 C         142.8111  136.7704  156.3919 C.3     1  UNL1        0.1538
     19 C         142.5091  138.1167  158.6812 C.ar    1  UNL1        0.0967
     20 C         142.9602  139.1459  167.7681 C.2     1  UNL1        0.2442
     21 N         143.7551  138.0845  167.0672 N.am    1  UNL1       -0.3253
     22 O         142.7062  139.0418  169.2428 O.2     1  UNL1       -0.2703
     23 H         143.9218  138.1528  166.0993 H       1  UNL1        0.1453
     24 H         144.1101  137.3194  167.5750 H       1  UNL1        0.1453
     25 N         140.7964  143.8085  164.6731 N.pl3   1  UNL1       -0.3340
     26 H         141.4139  144.4378  164.2350 H       1  UNL1        0.1468
     27 C         138.6026  144.8698  165.5735 C.3     1  UNL1        0.0212
     28 C         139.3145  144.0154  164.5669 C.3     1  UNL1        0.0690
     29 C         138.5446  143.3680  163.4543 C.3     1  UNL1        0.0164
     30 C         137.9780  142.3742  164.4247 C.3     1  UNL1        0.0016
     31 C         139.1112  144.3617  162.4840 C.3     1  UNL1        0.0016
     32 C         137.7746  142.7205  162.3417 C.3     1  UNL1        0.0016
@<TRIPOS>BOND
     1    28    27    1
     2    28    25    1
     3    25     1    1
     4     1     2   ar
     5     2     3   ar
     6     3     4   ar
     7     4    20    1
     8    20    21   am
     9    20    22    2
    10     4     5   ar
    11     5     6    2
    12     6     7    1
    13     7     8    2
    14     8     9    1
    15     9    14    1
    16    14    15   ar
    17    15    16   ar
    18    16    17   ar
    19    17    18    1
    20    17    19   ar
    21     9    10    2
    22    10    11    1
    23    11    12    1
    24    12    13    2
    25    28    29    1
    26    29    30    1
    27    29    31    1
    28    29    32    1
    29    13     1   ar
    30    13     5   ar
    31    12     7    1
    32    19    14   ar
    33    25    26    1
    34    21    23    1
    35    21    24    1
@<TRIPOS>MOLECULE
*****
 32 35 0 0 0
SMALL
GASTEIGER

@<TRIPOS>ATOM
      1 C         141.4463  144.0042  163.9933 C.ar    1  UNL1        0.0458
      2 C         141.9509  143.4049  165.2724 C.ar    1  UNL1        0.0145
      3 C         143.1426  142.4941  165.2550 C.ar    1  UNL1        0.0073
      4 C         143.8296  142.1826  163.9585 C.ar    1  UNL1        0.0708
      5 C         143.3250  142.7819  162.6794 C.ar    1  UNL1        0.0865
      6 N         143.7933  142.6586  161.2598 N.2     1  UNL1       -0.2455
      7 C         142.8912  143.4931  160.3998 C.2     1  UNL1        0.0777
      8 C         142.8714  143.7536  158.9227 C.2     1  UNL1        0.0186
      9 C         141.8256  144.6533  158.3338 C.2     1  UNL1        0.0006
     10 C         140.7996  145.2925  159.2220 C.2     1  UNL1       -0.0212
     11 C         140.8194  145.0320  160.6990 C.3     1  UNL1        0.0539
     12 C         141.8652  144.1323  161.2879 C.2     1  UNL1        0.0025
     13 C         142.1333  143.6928  162.6968 C.ar    1  UNL1        0.0287
     14 C         141.8057  144.9138  156.8567 C.ar    1  UNL1        0.0394
     15 C         142.5409  144.1268  155.8126 C.ar    1  UNL1        0.1216
     16 N         142.2367  144.7337  154.4751 N.ar    1  UNL1       -0.1676
     17 N         141.3135  145.8958  154.6924 N.ar    1  UNL1       -0.2473
     18 C         140.7548  146.7897  153.6253 C.3     1  UNL1        0.1538
     19 C         141.0471  146.0071  156.1644 C.ar    1  UNL1        0.0967
     20 C         145.0213  141.2718  163.9412 C.2     1  UNL1        0.2442
     21 N         146.3319  141.7617  163.4007 N.am    1  UNL1       -0.3253
     22 O         144.9023  139.8709  164.4643 O.2     1  UNL1       -0.2703
     23 H         146.4100  142.6811  163.0574 H       1  UNL1        0.1453
     24 H         147.1140  141.1639  163.3893 H       1  UNL1        0.1453
     25 N         140.2545  144.9151  164.0107 N.pl3   1  UNL1       -0.3340
     26 H         140.3309  145.8324  163.6614 H       1  UNL1        0.1468
     27 C         138.3945  145.0247  165.8212 C.3     1  UNL1        0.0212
     28 C         138.9465  144.4283  164.5605 C.3     1  UNL1        0.0690
     29 C         138.1906  143.3452  163.8496 C.3     1  UNL1        0.0164
     30 C         137.8894  144.2927  162.7264 C.3     1  UNL1        0.0016
     31 C         138.4919  142.3978  164.9727 C.3     1  UNL1        0.0016
     32 C         137.4347  142.2621  163.1386 C.3     1  UNL1        0.0016
@<TRIPOS>BOND
     1    28    27    1
     2    28    25    1
     3    25     1    1
     4     1     2   ar
     5     2     3   ar
     6     3     4   ar
     7     4    20    1
     8    20    21   am
     9    20    22    2
    10     4     5   ar
    11     5     6    2
    12     6     7    1
    13     7     8    2
    14     8     9    1
    15     9    14    1
    16    14    15   ar
    17    15    16   ar
    18    16    17   ar
    19    17    18    1
    20    17    19   ar
    21     9    10    2
    22    10    11    1
    23    11    12    1
    24    12    13    2
    25    28    29    1
    26    29    30    1
    27    29    31    1
    28    29    32    1
    29    13     1   ar
    30    13     5   ar
    31    12     7    1
    32    19    14   ar
    33    25    26    1
    34    21    23    1
    35    21    24    1
@<TRIPOS>MOLECULE
*****
 32 35 0 0 0
SMALL
GASTEIGER

@<TRIPOS>ATOM
      1 C         138.8597  141.4092  164.0290 C.ar    1  UNL1        0.0458
      2 C         139.4460  142.1304  165.2064 C.ar    1  UNL1        0.0145
      3 C         140.2003  143.4108  165.0022 C.ar    1  UNL1        0.0073
      4 C         140.3682  143.9700  163.6205 C.ar    1  UNL1        0.0708
      5 C         139.7819  143.2489  162.4431 C.ar    1  UNL1        0.0865
      6 N         139.7852  143.5556  160.9748 N.2     1  UNL1       -0.2455
      7 C         139.0331  142.4648  160.2716 C.2     1  UNL1        0.0777
      8 C         138.7140  142.2380  158.8236 C.2     1  UNL1        0.0186
      9 C         137.9268  141.0303  158.4094 C.2     1  UNL1        0.0006
     10 C         137.4586  140.0494  159.4431 C.2     1  UNL1       -0.0212
     11 C         137.7776  140.2762  160.8911 C.3     1  UNL1        0.0539
     12 C         138.5649  141.4839  161.3054 C.2     1  UNL1        0.0025
     13 C         139.0277  141.9685  162.6474 C.ar    1  UNL1        0.0287
     14 C         137.6077  140.8035  156.9613 C.ar    1  UNL1        0.0394
     15 C         138.5076  140.1558  155.9511 C.ar    1  UNL1        0.1216
     16 N         137.7888  140.1366  154.6347 N.ar    1  UNL1       -0.1676
     17 N         136.4445  140.7724  154.8314 N.ar    1  UNL1       -0.2473
     18 C         135.3962  140.9627  153.7755 C.3     1  UNL1        0.1538
     19 C         136.3326  141.1846  156.2693 C.ar    1  UNL1        0.0967
     20 C         141.1224  145.2504  163.4162 C.2     1  UNL1        0.2442
     21 N         140.5377  146.3375  162.5641 N.am    1  UNL1       -0.3253
     22 O         142.4615  145.4436  164.0641 O.2     1  UNL1       -0.2703
     23 H         139.6589  146.2107  162.1389 H       1  UNL1        0.1453
     24 H         141.0328  147.1779  162.4300 H       1  UNL1        0.1453
     25 N         138.1055  140.1288  164.2334 N.pl3   1  UNL1       -0.3340
     26 H         137.2129  140.0141  163.8341 H       1  UNL1        0.1468
     27 C         138.2416  138.7803  166.4498 C.3     1  UNL1        0.0212
     28 C         138.7112  139.0231  165.0461 C.3     1  UNL1        0.0690
     29 C         139.7865  138.1603  164.4552 C.3     1  UNL1        0.0164
     30 C         138.8392  137.7158  163.3804 C.3     1  UNL1        0.0016
     31 C         140.7338  138.6048  165.5299 C.3     1  UNL1        0.0016
     32 C         140.8618  137.2974  163.8642 C.3     1  UNL1        0.0016
@<TRIPOS>BOND
     1    28    27    1
     2    28    25    1
     3    25     1    1
     4     1     2   ar
     5     2     3   ar
     6     3     4   ar
     7     4    20    1
     8    20    21   am
     9    20    22    2
    10     4     5   ar
    11     5     6    2
    12     6     7    1
    13     7     8    2
    14     8     9    1
    15     9    14    1
    16    14    15   ar
    17    15    16   ar
    18    16    17   ar
    19    17    18    1
    20    17    19   ar
    21     9    10    2
    22    10    11    1
    23    11    12    1
    24    12    13    2
    25    28    29    1
    26    29    30    1
    27    29    31    1
    28    29    32    1
    29    13     1   ar
    30    13     5   ar
    31    12     7    1
    32    19    14   ar
    33    25    26    1
    34    21    23    1
    35    21    24    1
