@<TRIPOS>MOLECULE
*****
 33 37 0 0 0
SMALL
GASTEIGER

@<TRIPOS>ATOM
      1 C         141.7719  141.0033  167.1017 C.ar    1  UNL1        0.1682
      2 C         142.0642  141.2062  168.5588 C.ar    1  UNL1        0.0596
      3 C         143.1512  142.1495  168.9815 C.ar    1  UNL1        0.1050
      4 N         143.9460  142.8898  167.9470 N.ar    1  UNL1       -0.2119
      5 C         143.6537  142.6869  166.4897 C.ar    1  UNL1        0.2221
      6 N         142.5667  141.7436  166.0671 N.ar    1  UNL1       -0.1944
      7 C         137.3230  138.1596  167.0679 C.3     1  UNL1        0.0537
      8 C         138.6399  138.7529  166.6635 C.ar    1  UNL1        0.0782
      9 N         139.4437  139.7393  167.4579 N.ar    1  UNL1       -0.1684
     10 N         140.6849  140.0600  166.6790 N.ar    1  UNL1       -0.2112
     11 C         140.6482  139.2718  165.4032 C.ar    1  UNL1        0.1003
     12 C         139.3843  138.4640  165.3937 C.ar    1  UNL1        0.0283
     13 C         138.9425  137.5311  164.3054 C.3     1  UNL1        0.1021
     14 N         138.9983  137.9706  162.8723 N.3     1  UNL1       -0.2647
     15 C         140.0635  138.0150  161.8172 C.3     1  UNL1        0.1034
     16 C         139.0771  138.5921  160.8456 C.3     1  UNL1        0.1423
     17 O         139.1329  139.0316  159.4125 O.3     1  UNL1       -0.3816
     18 C         138.0119  138.5477  161.9007 C.3     1  UNL1        0.1034
     19 H         140.0294  138.8967  159.0676 H       1  UNL1        0.2105
     20 N         144.4485  143.4272  165.4552 N.pl3   1  UNL1       -0.2825
     21 H         145.2748  143.8966  165.7123 H       1  UNL1        0.1551
     22 C         143.9844  143.4522  164.0290 C.ar    1  UNL1        0.0505
     23 C         144.7191  142.6617  162.9872 C.ar    1  UNL1        0.0162
     24 C         144.2549  142.6867  161.5611 C.ar    1  UNL1        0.0184
     25 C         143.0560  143.5022  161.1768 C.ar    1  UNL1        0.0595
     26 C         142.3214  144.2927  162.2186 C.ar    1  UNL1        0.0141
     27 C         142.7855  144.2677  163.6447 C.ar    1  UNL1        0.0158
     28 C         141.1812  144.9985  161.5464 C.ar    1  UNL1       -0.0087
     29 C         140.1858  145.9002  162.2142 C.3     1  UNL1        0.0322
     30 C         141.2112  144.6442  160.0891 C.ar    1  UNL1        0.0335
     31 C         140.2510  145.1295  159.0438 C.3     1  UNL1        0.0497
     32 N         142.3699  143.7195  159.8606 N.ar    1  UNL1       -0.3289
     33 C         142.7720  143.1177  158.5468 C.3     1  UNL1        0.1301
@<TRIPOS>BOND
     1     7     8    1
     2     8     9   ar
     3     9    10   ar
     4    10     1    1
     5     1     2   ar
     6     2     3   ar
     7     3     4   ar
     8     4     5   ar
     9     5    20    1
    10    20    22    1
    11    22    23   ar
    12    23    24   ar
    13    24    25   ar
    14    25    26   ar
    15    26    27   ar
    16    26    28   ar
    17    28    29    1
    18    28    30   ar
    19    30    31    1
    20    30    32   ar
    21    32    33    1
    22     5     6   ar
    23    10    11   ar
    24    11    12   ar
    25    12    13    1
    26    13    14    1
    27    14    15    1
    28    15    16    1
    29    16    17    1
    30    16    18    1
    31    12     8   ar
    32    18    14    1
    33     6     1   ar
    34    27    22   ar
    35    32    25   ar
    36    20    21    1
    37    17    19    1
@<TRIPOS>MOLECULE
*****
 33 37 0 0 0
SMALL
GASTEIGER

@<TRIPOS>ATOM
      1 C         142.2478  140.5836  159.3065 C.ar    1  UNL1        0.1682
      2 C         142.4045  139.8341  158.0167 C.ar    1  UNL1        0.0596
      3 C         142.6794  138.3596  158.0347 C.ar    1  UNL1        0.1050
      4 N         142.7976  137.6346  159.3425 N.ar    1  UNL1       -0.2119
      5 C         142.6410  138.3841  160.6324 C.ar    1  UNL1        0.2221
      6 N         142.3661  139.8586  160.6144 N.ar    1  UNL1       -0.1944
      7 C         141.9582  145.6193  157.7449 C.3     1  UNL1        0.0537
      8 C         141.8398  144.3728  158.5707 C.ar    1  UNL1        0.0782
      9 N         142.2804  142.9986  158.1613 N.ar    1  UNL1       -0.1684
     10 N         141.9729  142.0581  159.2885 N.ar    1  UNL1       -0.2112
     11 C         141.3422  142.8509  160.3948 C.ar    1  UNL1        0.1003
     12 C         141.2600  144.2815  159.9511 C.ar    1  UNL1        0.0283
     13 C         140.6967  145.4207  160.7479 C.3     1  UNL1        0.1021
     14 N         140.1816  145.1824  162.1364 N.3     1  UNL1       -0.2647
     15 C         138.8308  144.9302  162.7378 C.3     1  UNL1        0.1034
     16 C         139.4531  144.8453  164.1000 C.3     1  UNL1        0.1423
     17 O         138.9379  144.6070  165.4885 O.3     1  UNL1       -0.3816
     18 C         140.8039  145.0974  163.4985 C.3     1  UNL1        0.1034
     19 H         137.9763  144.4836  165.4598 H       1  UNL1        0.2105
     20 N         142.7592  137.6591  161.9402 N.pl3   1  UNL1       -0.2825
     21 H         143.4682  136.9883  162.0688 H       1  UNL1        0.1551
     22 C         141.7972  137.9562  163.0521 C.ar    1  UNL1        0.0505
     23 C         140.4007  137.4112  163.0013 C.ar    1  UNL1        0.0162
     24 C         139.4387  137.7083  164.1131 C.ar    1  UNL1        0.0184
     25 C         139.8733  138.5504  165.2759 C.ar    1  UNL1        0.0595
     26 C         141.2698  139.0955  165.3267 C.ar    1  UNL1        0.0141
     27 C         142.2317  138.7984  164.2148 C.ar    1  UNL1        0.0158
     28 C         141.4117  139.8894  166.5914 C.ar    1  UNL1       -0.0087
     29 C         142.6458  140.6110  167.0456 C.3     1  UNL1        0.0322
     30 C         140.1029  139.8351  167.3222 C.ar    1  UNL1        0.0335
     31 C         139.7984  140.4928  168.6355 C.3     1  UNL1        0.0497
     32 N         139.1520  139.0075  166.5092 N.ar    1  UNL1       -0.3289
     33 C         137.7297  138.6924  166.8666 C.3     1  UNL1        0.1301
@<TRIPOS>BOND
     1     7     8    1
     2     8     9   ar
     3     9    10   ar
     4    10     1    1
     5     1     2   ar
     6     2     3   ar
     7     3     4   ar
     8     4     5   ar
     9     5    20    1
    10    20    22    1
    11    22    23   ar
    12    23    24   ar
    13    24    25   ar
    14    25    26   ar
    15    26    27   ar
    16    26    28   ar
    17    28    29    1
    18    28    30   ar
    19    30    31    1
    20    30    32   ar
    21    32    33    1
    22     5     6   ar
    23    10    11   ar
    24    11    12   ar
    25    12    13    1
    26    13    14    1
    27    14    15    1
    28    15    16    1
    29    16    17    1
    30    16    18    1
    31    12     8   ar
    32    18    14    1
    33     6     1   ar
    34    27    22   ar
    35    32    25   ar
    36    20    21    1
    37    17    19    1
@<TRIPOS>MOLECULE
*****
 33 37 0 0 0
SMALL
GASTEIGER

@<TRIPOS>ATOM
      1 C         142.4439  138.7478  160.3129 C.ar    1  UNL1        0.1682
      2 C         141.0060  139.1141  160.0931 C.ar    1  UNL1        0.0596
      3 C         140.3231  138.7361  158.8121 C.ar    1  UNL1        0.1050
      4 N         141.0781  137.9919  157.7510 N.ar    1  UNL1       -0.2119
      5 C         142.5160  137.6255  157.9707 C.ar    1  UNL1        0.2221
      6 N         143.1989  138.0034  159.2517 N.ar    1  UNL1       -0.1944
      7 C         145.5635  141.1743  163.8143 C.3     1  UNL1        0.0537
      8 C         144.5608  140.2411  163.2033 C.ar    1  UNL1        0.0782
      9 N         144.1480  140.2115  161.7615 N.ar    1  UNL1       -0.1684
     10 N         143.1268  139.1257  161.5938 N.ar    1  UNL1       -0.2112
     11 C         142.9083  138.4842  162.9320 C.ar    1  UNL1        0.1003
     12 C         143.7946  139.1736  163.9267 C.ar    1  UNL1        0.0283
     13 C         143.8968  138.8518  165.3882 C.3     1  UNL1        0.1021
     14 N         142.8145  139.2897  166.3300 N.3     1  UNL1       -0.2647
     15 C         142.6792  139.3819  167.8211 C.3     1  UNL1        0.1034
     16 C         141.2839  139.9089  167.6619 C.3     1  UNL1        0.1423
     17 O         140.2017  140.3468  168.6037 O.3     1  UNL1       -0.3816
     18 C         141.4192  139.8167  166.1709 C.3     1  UNL1        0.1034
     19 H         140.5116  140.2538  169.5181 H       1  UNL1        0.2105
     20 N         143.2709  136.8812  156.9096 N.pl3   1  UNL1       -0.2825
     21 H         144.0268  137.3123  156.4492 H       1  UNL1        0.1551
     22 C         142.8741  135.4800  156.5499 C.ar    1  UNL1        0.0505
     23 C         141.6990  135.2412  155.6488 C.ar    1  UNL1        0.0162
     24 C         141.3023  133.8401  155.2892 C.ar    1  UNL1        0.0184
     25 C         142.0807  132.6778  155.8306 C.ar    1  UNL1        0.0595
     26 C         143.2558  132.9166  156.7317 C.ar    1  UNL1        0.0141
     27 C         143.6525  134.3177  157.0914 C.ar    1  UNL1        0.0158
     28 C         143.8285  131.5828  157.1100 C.ar    1  UNL1       -0.0087
     29 C         145.0142  131.3527  157.9994 C.3     1  UNL1        0.0322
     30 C         143.0073  130.5196  156.4426 C.ar    1  UNL1        0.0335
     31 C         143.2277  129.0396  156.5476 C.3     1  UNL1        0.0497
     32 N         141.9271  131.1963  155.6519 N.ar    1  UNL1       -0.3289
     33 C         140.8776  130.5118  154.8273 C.3     1  UNL1        0.1301
@<TRIPOS>BOND
     1     7     8    1
     2     8     9   ar
     3     9    10   ar
     4    10     1    1
     5     1     2   ar
     6     2     3   ar
     7     3     4   ar
     8     4     5   ar
     9     5    20    1
    10    20    22    1
    11    22    23   ar
    12    23    24   ar
    13    24    25   ar
    14    25    26   ar
    15    26    27   ar
    16    26    28   ar
    17    28    29    1
    18    28    30   ar
    19    30    31    1
    20    30    32   ar
    21    32    33    1
    22     5     6   ar
    23    10    11   ar
    24    11    12   ar
    25    12    13    1
    26    13    14    1
    27    14    15    1
    28    15    16    1
    29    16    17    1
    30    16    18    1
    31    12     8   ar
    32    18    14    1
    33     6     1   ar
    34    27    22   ar
    35    32    25   ar
    36    20    21    1
    37    17    19    1
@<TRIPOS>MOLECULE
*****
 33 37 0 0 0
SMALL
GASTEIGER

@<TRIPOS>ATOM
      1 C         138.3449  140.1809  159.9232 C.ar    1  UNL1        0.1682
      2 C         139.1494  138.9169  159.8517 C.ar    1  UNL1        0.0596
      3 C         139.3876  138.1083  161.0924 C.ar    1  UNL1        0.1050
      4 N         138.8213  138.5636  162.4046 N.ar    1  UNL1       -0.2119
      5 C         138.0167  139.8276  162.4762 C.ar    1  UNL1        0.2221
      6 N         137.7785  140.6363  161.2355 N.ar    1  UNL1       -0.1944
      7 C         136.4489  141.7920  155.2659 C.3     1  UNL1        0.0537
      8 C         137.2352  141.7301  156.5418 C.ar    1  UNL1        0.0782
      9 N         137.1496  140.6496  157.5787 N.ar    1  UNL1       -0.1684
     10 N         138.1067  140.9895  158.6825 N.ar    1  UNL1       -0.2112
     11 C         138.7838  142.2802  158.3278 C.ar    1  UNL1        0.1003
     12 C         138.2451  142.7378  157.0047 C.ar    1  UNL1        0.0283
     13 C         138.6461  143.9844  156.2731 C.3     1  UNL1        0.1021
     14 N         139.8633  144.7481  156.7036 N.3     1  UNL1       -0.2647
     15 C         140.1072  146.0869  157.3346 C.3     1  UNL1        0.1034
     16 C         141.5846  145.8281  157.3125 C.3     1  UNL1        0.1423
     17 O         142.8017  146.5918  157.7430 O.3     1  UNL1       -0.3816
     18 C         141.3406  144.4893  156.6815 C.3     1  UNL1        0.1034
     19 H         142.5324  147.4451  158.1173 H       1  UNL1        0.2105
     20 N         137.4504  140.2829  163.7884 N.pl3   1  UNL1       -0.2825
     21 H         136.5160  140.5882  163.8419 H       1  UNL1        0.1551
     22 C         138.3079  140.2731  165.0192 C.ar    1  UNL1        0.0505
     23 C         137.9484  139.3893  166.1766 C.ar    1  UNL1        0.0162
     24 C         138.8058  139.3795  167.4073 C.ar    1  UNL1        0.0184
     25 C         140.0227  140.2535  167.4806 C.ar    1  UNL1        0.0595
     26 C         140.3822  141.1372  166.3232 C.ar    1  UNL1        0.0141
     27 C         139.5248  141.1470  165.0925 C.ar    1  UNL1        0.0158
     28 C         141.6323  141.8847  166.6815 C.ar    1  UNL1       -0.0087
     29 C         142.3442  142.8794  165.8133 C.3     1  UNL1        0.0322
     30 C         142.0454  141.4630  168.0605 C.ar    1  UNL1        0.0335
     31 C         143.2431  141.9619  168.8134 C.3     1  UNL1        0.0497
     32 N         141.0506  140.4548  168.5544 N.ar    1  UNL1       -0.3289
     33 C         141.0788  139.7685  169.8878 C.3     1  UNL1        0.1301
@<TRIPOS>BOND
     1     7     8    1
     2     8     9   ar
     3     9    10   ar
     4    10     1    1
     5     1     2   ar
     6     2     3   ar
     7     3     4   ar
     8     4     5   ar
     9     5    20    1
    10    20    22    1
    11    22    23   ar
    12    23    24   ar
    13    24    25   ar
    14    25    26   ar
    15    26    27   ar
    16    26    28   ar
    17    28    29    1
    18    28    30   ar
    19    30    31    1
    20    30    32   ar
    21    32    33    1
    22     5     6   ar
    23    10    11   ar
    24    11    12   ar
    25    12    13    1
    26    13    14    1
    27    14    15    1
    28    15    16    1
    29    16    17    1
    30    16    18    1
    31    12     8   ar
    32    18    14    1
    33     6     1   ar
    34    27    22   ar
    35    32    25   ar
    36    20    21    1
    37    17    19    1
@<TRIPOS>MOLECULE
*****
 33 37 0 0 0
SMALL
GASTEIGER

@<TRIPOS>ATOM
      1 C         142.0970  140.3273  159.7395 C.ar    1  UNL1        0.1682
      2 C         142.6586  139.5906  158.5597 C.ar    1  UNL1        0.0596
      3 C         142.9182  138.1160  158.6504 C.ar    1  UNL1        0.1050
      4 N         142.6161  137.3781  159.9209 N.ar    1  UNL1       -0.2119
      5 C         142.0544  138.1147  161.1007 C.ar    1  UNL1        0.2221
      6 N         141.7949  139.5893  161.0100 N.ar    1  UNL1       -0.1944
      7 C         141.9122  145.2933  157.9549 C.3     1  UNL1        0.0537
      8 C         141.7525  144.0845  158.8285 C.ar    1  UNL1        0.0782
      9 N         142.1937  142.6904  158.4941 N.ar    1  UNL1       -0.1684
     10 N         141.8374  141.8018  159.6488 N.ar    1  UNL1       -0.2112
     11 C         141.1760  142.6468  160.6970 C.ar    1  UNL1        0.1003
     12 C         141.1235  144.0575  160.1900 C.ar    1  UNL1        0.0283
     13 C         140.5438  145.2346  160.9169 C.3     1  UNL1        0.1021
     14 N         140.0200  145.0703  162.3128 N.3     1  UNL1       -0.2647
     15 C         138.6588  144.9144  162.9235 C.3     1  UNL1        0.1034
     16 C         139.2792  144.8380  164.2870 C.3     1  UNL1        0.1423
     17 O         138.7554  144.6738  165.6829 O.3     1  UNL1       -0.3816
     18 C         140.6404  144.9939  163.6764 C.3     1  UNL1        0.1034
     19 H         137.7882  144.6041  165.6592 H       1  UNL1        0.2105
     20 N         141.7523  137.3767  162.3712 N.pl3   1  UNL1       -0.2825
     21 H         141.5282  136.4185  162.3425 H       1  UNL1        0.1551
     22 C         141.7917  138.0987  163.6855 C.ar    1  UNL1        0.0505
     23 C         143.0901  138.6420  164.2042 C.ar    1  UNL1        0.0162
     24 C         143.1294  139.3639  165.5184 C.ar    1  UNL1        0.0184
     25 C         141.8704  139.5426  166.3139 C.ar    1  UNL1        0.0595
     26 C         140.5720  138.9994  165.7952 C.ar    1  UNL1        0.0141
     27 C         140.5327  138.2775  164.4810 C.ar    1  UNL1        0.0158
     28 C         139.5011  139.3261  166.7934 C.ar    1  UNL1       -0.0087
     29 C         138.0486  138.9701  166.6764 C.3     1  UNL1        0.0322
     30 C         140.1376  140.0713  167.9290 C.ar    1  UNL1        0.0335
     31 C         139.4333  140.5913  169.1471 C.3     1  UNL1        0.0497
     32 N         141.6019  140.2051  167.6327 N.ar    1  UNL1       -0.3289
     33 C         142.6192  140.8825  168.5024 C.3     1  UNL1        0.1301
@<TRIPOS>BOND
     1     7     8    1
     2     8     9   ar
     3     9    10   ar
     4    10     1    1
     5     1     2   ar
     6     2     3   ar
     7     3     4   ar
     8     4     5   ar
     9     5    20    1
    10    20    22    1
    11    22    23   ar
    12    23    24   ar
    13    24    25   ar
    14    25    26   ar
    15    26    27   ar
    16    26    28   ar
    17    28    29    1
    18    28    30   ar
    19    30    31    1
    20    30    32   ar
    21    32    33    1
    22     5     6   ar
    23    10    11   ar
    24    11    12   ar
    25    12    13    1
    26    13    14    1
    27    14    15    1
    28    15    16    1
    29    16    17    1
    30    16    18    1
    31    12     8   ar
    32    18    14    1
    33     6     1   ar
    34    27    22   ar
    35    32    25   ar
    36    20    21    1
    37    17    19    1
@<TRIPOS>MOLECULE
*****
 33 37 0 0 0
SMALL
GASTEIGER

@<TRIPOS>ATOM
      1 C         142.1314  138.9021  159.9265 C.ar    1  UNL1        0.1682
      2 C         140.6890  139.1347  159.5869 C.ar    1  UNL1        0.0596
      3 C         140.1119  138.5562  158.3290 C.ar    1  UNL1        0.1050
      4 N         140.9772  137.7451  157.4107 N.ar    1  UNL1       -0.2119
      5 C         142.4197  137.5124  157.7503 C.ar    1  UNL1        0.2221
      6 N         142.9968  138.0909  159.0082 N.ar    1  UNL1       -0.1944
      7 C         145.0059  139.5184  164.3126 C.3     1  UNL1        0.0537
      8 C         144.0298  139.7638  163.2005 C.ar    1  UNL1        0.0782
      9 N         143.7487  138.8386  162.0538 N.ar    1  UNL1       -0.1684
     10 N         142.7085  139.4805  161.1844 N.ar    1  UNL1       -0.2112
     11 C         142.3467  140.8026  161.7938 C.ar    1  UNL1        0.1003
     12 C         143.1633  140.9777  163.0398 C.ar    1  UNL1        0.0283
     13 C         143.1209  142.1592  163.9630 C.3     1  UNL1        0.1021
     14 N         142.4125  143.4132  163.5441 N.3     1  UNL1       -0.2647
     15 C         142.8156  144.6738  162.8381 C.3     1  UNL1        0.1034
     16 C         141.4106  145.1868  162.9517 C.3     1  UNL1        0.1423
     17 O         140.7022  146.4408  162.5328 O.3     1  UNL1       -0.3816
     18 C         141.0075  143.9262  163.6577 C.3     1  UNL1        0.1034
     19 H         141.3290  147.0335  162.0892 H       1  UNL1        0.2105
     20 N         143.2849  136.7012  156.8320 N.pl3   1  UNL1       -0.2825
     21 H         144.1048  137.0937  156.4539 H       1  UNL1        0.1551
     22 C         142.9010  135.2921  156.4899 C.ar    1  UNL1        0.0505
     23 C         141.7531  135.0323  155.5599 C.ar    1  UNL1        0.0162
     24 C         141.3693  133.6232  155.2178 C.ar    1  UNL1        0.0184
     25 C         142.1333  132.4739  155.8056 C.ar    1  UNL1        0.0595
     26 C         143.2811  132.7338  156.7356 C.ar    1  UNL1        0.0141
     27 C         143.6650  134.1428  157.0777 C.ar    1  UNL1        0.0158
     28 C         143.8445  131.4093  157.1579 C.ar    1  UNL1       -0.0087
     29 C         145.0040  131.2000  158.0862 C.3     1  UNL1        0.0322
     30 C         143.0448  130.3308  156.4889 C.ar    1  UNL1        0.0335
     31 C         143.2643  128.8537  156.6307 C.3     1  UNL1        0.0497
     32 N         141.9872  130.9888  155.6531 N.ar    1  UNL1       -0.3289
     33 C         140.9633  130.2853  154.8125 C.3     1  UNL1        0.1301
@<TRIPOS>BOND
     1     7     8    1
     2     8     9   ar
     3     9    10   ar
     4    10     1    1
     5     1     2   ar
     6     2     3   ar
     7     3     4   ar
     8     4     5   ar
     9     5    20    1
    10    20    22    1
    11    22    23   ar
    12    23    24   ar
    13    24    25   ar
    14    25    26   ar
    15    26    27   ar
    16    26    28   ar
    17    28    29    1
    18    28    30   ar
    19    30    31    1
    20    30    32   ar
    21    32    33    1
    22     5     6   ar
    23    10    11   ar
    24    11    12   ar
    25    12    13    1
    26    13    14    1
    27    14    15    1
    28    15    16    1
    29    16    17    1
    30    16    18    1
    31    12     8   ar
    32    18    14    1
    33     6     1   ar
    34    27    22   ar
    35    32    25   ar
    36    20    21    1
    37    17    19    1
@<TRIPOS>MOLECULE
*****
 33 37 0 0 0
SMALL
GASTEIGER

@<TRIPOS>ATOM
      1 C         142.5632  137.7740  158.2183 C.ar    1  UNL1        0.1682
      2 C         142.2847  139.2297  157.9873 C.ar    1  UNL1        0.0596
      3 C         142.2310  140.1766  159.1494 C.ar    1  UNL1        0.1050
      4 N         142.4559  139.6678  160.5424 N.ar    1  UNL1       -0.2119
      5 C         142.7344  138.2121  160.7734 C.ar    1  UNL1        0.2221
      6 N         142.7880  137.2652  159.6113 N.ar    1  UNL1       -0.1944
      7 C         141.9601  135.6957  153.4019 C.3     1  UNL1        0.0537
      8 C         142.3396  135.8718  154.8423 C.ar    1  UNL1        0.0782
      9 N         142.0662  137.0826  155.6845 N.ar    1  UNL1       -0.1684
     10 N         142.6168  136.8271  157.0562 N.ar    1  UNL1       -0.2112
     11 C         143.2305  135.4583  157.0618 C.ar    1  UNL1        0.1003
     12 C         143.0592  134.8680  155.6935 C.ar    1  UNL1        0.0283
     13 C         143.5255  133.5118  155.2537 C.3     1  UNL1        0.1021
     14 N         143.7701  132.4365  156.2705 N.3     1  UNL1       -0.2647
     15 C         142.9353  131.3587  156.8961 C.3     1  UNL1        0.1034
     16 C         144.1159  130.9159  157.7086 C.3     1  UNL1        0.1423
     17 O         144.3605  129.8406  158.7254 O.3     1  UNL1       -0.3816
     18 C         144.9507  131.9938  157.0830 C.3     1  UNL1        0.1034
     19 H         143.5443  129.3350  158.8640 H       1  UNL1        0.2105
     20 N         142.9592  137.7033  162.1665 N.pl3   1  UNL1       -0.2825
     21 H         143.7703  137.1865  162.3768 H       1  UNL1        0.1551
     22 C         141.9482  137.9820  163.2390 C.ar    1  UNL1        0.0505
     23 C         140.5745  137.3865  163.1479 C.ar    1  UNL1        0.0162
     24 C         139.5636  137.6653  164.2204 C.ar    1  UNL1        0.0184
     25 C         139.9264  138.5394  165.3841 C.ar    1  UNL1        0.0595
     26 C         141.3001  139.1349  165.4752 C.ar    1  UNL1        0.0141
     27 C         142.3110  138.8562  164.4027 C.ar    1  UNL1        0.0158
     28 C         141.3687  139.9519  166.7313 C.ar    1  UNL1       -0.0087
     29 C         142.5595  140.7240  167.2170 C.3     1  UNL1        0.0322
     30 C         140.0374  139.8614  167.4165 C.ar    1  UNL1        0.0335
     31 C         139.6632  140.5271  168.7076 C.3     1  UNL1        0.0497
     32 N         139.1460  138.9885  166.5839 N.ar    1  UNL1       -0.3289
     33 C         137.7239  138.6278  166.8961 C.3     1  UNL1        0.1301
@<TRIPOS>BOND
     1     7     8    1
     2     8     9   ar
     3     9    10   ar
     4    10     1    1
     5     1     2   ar
     6     2     3   ar
     7     3     4   ar
     8     4     5   ar
     9     5    20    1
    10    20    22    1
    11    22    23   ar
    12    23    24   ar
    13    24    25   ar
    14    25    26   ar
    15    26    27   ar
    16    26    28   ar
    17    28    29    1
    18    28    30   ar
    19    30    31    1
    20    30    32   ar
    21    32    33    1
    22     5     6   ar
    23    10    11   ar
    24    11    12   ar
    25    12    13    1
    26    13    14    1
    27    14    15    1
    28    15    16    1
    29    16    17    1
    30    16    18    1
    31    12     8   ar
    32    18    14    1
    33     6     1   ar
    34    27    22   ar
    35    32    25   ar
    36    20    21    1
    37    17    19    1
@<TRIPOS>MOLECULE
*****
 33 37 0 0 0
SMALL
GASTEIGER

@<TRIPOS>ATOM
      1 C         139.9561  139.0522  159.9653 C.ar    1  UNL1        0.1682
      2 C         138.7964  139.9642  159.6944 C.ar    1  UNL1        0.0596
      3 C         137.7186  140.1330  160.7239 C.ar    1  UNL1        0.1050
      4 N         137.8005  139.3899  162.0243 N.ar    1  UNL1       -0.2119
      5 C         138.9602  138.4778  162.2952 C.ar    1  UNL1        0.2221
      6 N         140.0380  138.3090  161.2657 N.ar    1  UNL1       -0.1944
      7 C         143.9745  140.0567  156.6905 C.3     1  UNL1        0.0537
      8 C         142.8810  139.3450  157.4306 C.ar    1  UNL1        0.0782
      9 N         141.9724  139.9516  158.4585 N.ar    1  UNL1       -0.1684
     10 N         141.0339  138.8833  158.9358 N.ar    1  UNL1       -0.2112
     11 C         141.3624  137.6164  158.2029 C.ar    1  UNL1        0.1003
     12 C         142.5040  137.9018  157.2726 C.ar    1  UNL1        0.0283
     13 C         143.1543  136.9169  156.3469 C.3     1  UNL1        0.1021
     14 N         143.0531  135.4463  156.6251 N.3     1  UNL1       -0.2647
     15 C         143.5783  134.5296  157.6899 C.3     1  UNL1        0.1034
     16 C         142.9099  133.3667  157.0184 C.3     1  UNL1        0.1423
     17 O         142.8086  131.8962  157.2966 O.3     1  UNL1       -0.3816
     18 C         142.3846  134.2834  155.9536 C.3     1  UNL1        0.1034
     19 H         143.3014  131.6854  158.1051 H       1  UNL1        0.2105
     20 N         139.0420  137.7347  163.5956 N.pl3   1  UNL1       -0.2825
     21 H         138.9581  136.7538  163.6081 H       1  UNL1        0.1551
     22 C         139.2516  138.4860  164.8769 C.ar    1  UNL1        0.0505
     23 C         138.2382  138.3877  165.9783 C.ar    1  UNL1        0.0162
     24 C         138.4479  139.1390  167.2596 C.ar    1  UNL1        0.0184
     25 C         139.6710  139.9885  167.4393 C.ar    1  UNL1        0.0595
     26 C         140.6844  140.0867  166.3379 C.ar    1  UNL1        0.0141
     27 C         140.4748  139.3355  165.0567 C.ar    1  UNL1        0.0158
     28 C         141.7843  140.9960  166.7998 C.ar    1  UNL1       -0.0087
     29 C         143.0038  141.3750  166.0129 C.3     1  UNL1        0.0322
     30 C         141.4506  141.4598  168.1868 C.ar    1  UNL1        0.0335
     31 C         142.2779  142.3840  169.0303 C.3     1  UNL1        0.0497
     32 N         140.1445  140.8371  168.5821 N.ar    1  UNL1       -0.3289
     33 C         139.4363  141.0292  169.8903 C.3     1  UNL1        0.1301
@<TRIPOS>BOND
     1     7     8    1
     2     8     9   ar
     3     9    10   ar
     4    10     1    1
     5     1     2   ar
     6     2     3   ar
     7     3     4   ar
     8     4     5   ar
     9     5    20    1
    10    20    22    1
    11    22    23   ar
    12    23    24   ar
    13    24    25   ar
    14    25    26   ar
    15    26    27   ar
    16    26    28   ar
    17    28    29    1
    18    28    30   ar
    19    30    31    1
    20    30    32   ar
    21    32    33    1
    22     5     6   ar
    23    10    11   ar
    24    11    12   ar
    25    12    13    1
    26    13    14    1
    27    14    15    1
    28    15    16    1
    29    16    17    1
    30    16    18    1
    31    12     8   ar
    32    18    14    1
    33     6     1   ar
    34    27    22   ar
    35    32    25   ar
    36    20    21    1
    37    17    19    1
@<TRIPOS>MOLECULE
*****
 33 37 0 0 0
SMALL
GASTEIGER

@<TRIPOS>ATOM
      1 C         142.8408  139.1677  158.2716 C.ar    1  UNL1        0.1682
      2 C         143.8235  140.3003  158.3098 C.ar    1  UNL1        0.0596
      3 C         144.7683  140.5125  157.1643 C.ar    1  UNL1        0.1050
      4 N         144.7304  139.5920  155.9805 N.ar    1  UNL1       -0.2119
      5 C         143.7476  138.4594  155.9423 C.ar    1  UNL1        0.2221
      6 N         142.8028  138.2472  157.0878 N.ar    1  UNL1       -0.1944
      7 C         140.7557  137.4549  162.8103 C.3     1  UNL1        0.0537
      8 C         140.9376  138.1682  161.5035 C.ar    1  UNL1        0.0782
      9 N         142.1424  138.0852  160.6138 N.ar    1  UNL1       -0.1684
     10 N         141.8960  138.9556  159.4172 N.ar    1  UNL1       -0.2112
     11 C         140.5388  139.5766  159.5674 C.ar    1  UNL1        0.1003
     12 C         139.9465  139.0899  160.8568 C.ar    1  UNL1        0.0283
     13 C         138.5996  139.4601  161.4034 C.3     1  UNL1        0.1021
     14 N         138.2861  140.8926  161.7191 N.3     1  UNL1       -0.2647
     15 C         138.3248  142.1808  160.9516 C.3     1  UNL1        0.1034
     16 C         137.8427  142.9184  162.1655 C.3     1  UNL1        0.1423
     17 O         137.5292  144.3510  162.4812 O.3     1  UNL1       -0.3816
     18 C         137.8041  141.6302  162.9330 C.3     1  UNL1        0.1034
     19 H         137.6862  144.8971  161.6951 H       1  UNL1        0.2105
     20 N         143.7097  137.5390  154.7585 N.pl3   1  UNL1       -0.2825
     21 H         143.9797  137.8676  153.8706 H       1  UNL1        0.1551
     22 C         143.2604  136.1178  154.9275 C.ar    1  UNL1        0.0505
     23 C         142.1358  135.5824  154.0918 C.ar    1  UNL1        0.0162
     24 C         141.6865  134.1613  154.2608 C.ar    1  UNL1        0.0184
     25 C         142.3619  133.2756  155.2655 C.ar    1  UNL1        0.0595
     26 C         143.4865  133.8111  156.1013 C.ar    1  UNL1        0.0141
     27 C         143.9358  135.2322  155.9322 C.ar    1  UNL1        0.0158
     28 C         143.9581  132.7099  157.0040 C.ar    1  UNL1       -0.0087
     29 C         145.0681  132.8077  158.0083 C.3     1  UNL1        0.0322
     30 C         143.1250  131.4939  156.7262 C.ar    1  UNL1        0.0335
     31 C         143.2556  130.1620  157.4039 C.3     1  UNL1        0.0497
     32 N         142.1384  131.8435  155.6518 N.ar    1  UNL1       -0.3289
     33 C         141.1092  130.9227  155.0663 C.3     1  UNL1        0.1301
@<TRIPOS>BOND
     1     7     8    1
     2     8     9   ar
     3     9    10   ar
     4    10     1    1
     5     1     2   ar
     6     2     3   ar
     7     3     4   ar
     8     4     5   ar
     9     5    20    1
    10    20    22    1
    11    22    23   ar
    12    23    24   ar
    13    24    25   ar
    14    25    26   ar
    15    26    27   ar
    16    26    28   ar
    17    28    29    1
    18    28    30   ar
    19    30    31    1
    20    30    32   ar
    21    32    33    1
    22     5     6   ar
    23    10    11   ar
    24    11    12   ar
    25    12    13    1
    26    13    14    1
    27    14    15    1
    28    15    16    1
    29    16    17    1
    30    16    18    1
    31    12     8   ar
    32    18    14    1
    33     6     1   ar
    34    27    22   ar
    35    32    25   ar
    36    20    21    1
    37    17    19    1
