@<TRIPOS>MOLECULE
*****
 29 32 0 0 0
SMALL
GASTEIGER

@<TRIPOS>ATOM
      1 C         139.9101  144.2983  162.4780 C.3     1  UNL1        0.0767
      2 C         140.6062  144.1907  163.8023 C.3     1  UNL1        0.0092
      3 C         139.7690  142.9943  164.1454 C.3     1  UNL1        0.0042
      4 C         140.6581  143.2000  165.3357 C.3     1  UNL1        0.0216
      5 C         140.5583  142.2780  166.5147 C.3     1  UNL1        0.0937
      6 N         139.5694  141.1502  166.5032 N.am    1  UNL1       -0.2761
      7 C         139.4697  140.2282  167.6822 C.2     1  UNL1        0.2490
      8 O         138.4807  139.1004  167.6707 O.2     1  UNL1       -0.2699
      9 C         138.6803  140.9444  165.3128 C.3     1  UNL1        0.0937
     10 C         138.7801  141.8665  164.1339 C.3     1  UNL1        0.0216
     11 C         139.0728  143.1018  162.8210 C.3     1  UNL1        0.0092
     12 N         142.9393  143.3939  157.9004 N.3     1  UNL1       -0.2725
     13 C         142.5589  144.6733  157.2160 C.3     1  UNL1        0.0739
     14 C         141.6504  145.7617  157.7060 C.3     1  UNL1        0.0388
     15 C         140.8981  145.8396  159.0013 C.3     1  UNL1        0.0949
     16 N         140.8683  144.8483  160.1267 N.am    1  UNL1       -0.2781
     17 C         140.0098  145.2203  161.2991 C.2     1  UNL1        0.2252
     18 O         139.2511  146.5142  161.2926 O.2     1  UNL1       -0.2749
     19 C         141.5836  143.5343  160.2346 C.3     1  UNL1        0.1107
     20 C         142.5053  142.8870  159.2438 C.3     1  UNL1        0.0938
     21 C         145.2986  142.3491  157.5967 C.3     1  UNL1        0.0173
     22 C         143.8778  142.5037  157.1411 C.3     1  UNL1        0.0576
     23 C         143.3955  141.7679  155.9262 C.3     1  UNL1        0.0173
     24 C         140.3588  140.4340  168.8726 C.ar    1  UNL1        0.0536
     25 C         139.9420  141.3712  169.9670 C.ar    1  UNL1        0.0045
     26 C         140.8312  141.5770  171.1574 C.ar    1  UNL1        0.0001
     27 C         142.1371  140.8455  171.2534 C.ar    1  UNL1        0.0000
     28 C         142.5540  139.9082  170.1590 C.ar    1  UNL1        0.0001
     29 C         141.6649  139.7024  168.9686 C.ar    1  UNL1        0.0045
@<TRIPOS>BOND
     1    21    22    1
     2    22    23    1
     3    22    12    1
     4    12    13    1
     5    13    14    1
     6    14    15    1
     7    15    16    1
     8    16    17   am
     9    17    18    2
    10    17     1    1
    11     1     2    1
    12     2     3    1
    13     3     4    1
    14     4     5    1
    15     5     6    1
    16     6     7   am
    17     7     8    2
    18     7    24    1
    19    24    25   ar
    20    25    26   ar
    21    26    27   ar
    22    27    28   ar
    23    28    29   ar
    24     6     9    1
    25     9    10    1
    26     3    11    1
    27    16    19    1
    28    19    20    1
    29    20    12    1
    30    11     1    1
    31    10     3    1
    32    29    24   ar
@<TRIPOS>MOLECULE
*****
 29 32 0 0 0
SMALL
GASTEIGER

@<TRIPOS>ATOM
      1 C         143.7921  140.9609  161.5786 C.3     1  UNL1        0.0767
      2 C         142.9385  141.5641  162.6545 C.3     1  UNL1        0.0092
      3 C         143.4114  140.5157  163.6175 C.3     1  UNL1        0.0042
      4 C         142.4645  141.3697  164.4075 C.3     1  UNL1        0.0216
      5 C         142.1953  141.0549  165.8491 C.3     1  UNL1        0.0937
      6 N         142.8731  139.8861  166.5008 N.am    1  UNL1       -0.2761
      7 C         142.6039  139.5713  167.9426 C.2     1  UNL1        0.2490
      8 O         143.2817  138.4026  168.5942 O.2     1  UNL1       -0.2699
      9 C         143.8200  139.0322  165.7109 C.3     1  UNL1        0.0937
     10 C         144.0892  139.3470  164.2692 C.3     1  UNL1        0.0216
     11 C         144.2650  139.9126  162.5416 C.3     1  UNL1        0.0092
     12 N         142.9439  137.5162  157.2934 N.3     1  UNL1       -0.2725
     13 C         143.4143  138.4734  156.2387 C.3     1  UNL1        0.0739
     14 C         143.9237  139.8741  156.4071 C.3     1  UNL1        0.0388
     15 C         144.0886  140.6636  157.6718 C.3     1  UNL1        0.0949
     16 N         143.7848  140.2475  159.0805 N.am    1  UNL1       -0.2781
     17 C         144.0612  141.2758  160.1369 C.2     1  UNL1        0.2252
     18 O         144.6069  142.6188  159.7517 O.2     1  UNL1       -0.2749
     19 C         143.2410  138.9389  159.5724 C.3     1  UNL1        0.1107
     20 C         142.8667  137.7234  158.7771 C.3     1  UNL1        0.0938
     21 C         143.2375  134.9364  157.1990 C.3     1  UNL1        0.0173
     22 C         142.4907  136.1744  156.7993 C.3     1  UNL1        0.0576
     23 C         141.2906  136.0706  155.9054 C.3     1  UNL1        0.0173
     24 C         141.6570  140.4253  168.7325 C.ar    1  UNL1        0.0536
     25 C         140.2401  139.9790  168.9407 C.ar    1  UNL1        0.0045
     26 C         139.2932  140.8330  169.7307 C.ar    1  UNL1        0.0001
     27 C         139.7631  142.1332  170.3125 C.ar    1  UNL1        0.0000
     28 C         141.1800  142.5795  170.1043 C.ar    1  UNL1        0.0001
     29 C         142.1269  141.7256  169.3144 C.ar    1  UNL1        0.0045
@<TRIPOS>BOND
     1    21    22    1
     2    22    23    1
     3    22    12    1
     4    12    13    1
     5    13    14    1
     6    14    15    1
     7    15    16    1
     8    16    17   am
     9    17    18    2
    10    17     1    1
    11     1     2    1
    12     2     3    1
    13     3     4    1
    14     4     5    1
    15     5     6    1
    16     6     7   am
    17     7     8    2
    18     7    24    1
    19    24    25   ar
    20    25    26   ar
    21    26    27   ar
    22    27    28   ar
    23    28    29   ar
    24     6     9    1
    25     9    10    1
    26     3    11    1
    27    16    19    1
    28    19    20    1
    29    20    12    1
    30    11     1    1
    31    10     3    1
    32    29    24   ar
@<TRIPOS>MOLECULE
*****
 29 32 0 0 0
SMALL
GASTEIGER

@<TRIPOS>ATOM
      1 C         139.7916  140.9928  159.1919 C.3     1  UNL1        0.0767
      2 C         139.5239  139.6552  158.5679 C.3     1  UNL1        0.0092
      3 C         140.9491  139.5856  158.1054 C.3     1  UNL1        0.0042
      4 C         140.3216  138.3117  157.6224 C.3     1  UNL1        0.0216
      5 C         141.1401  137.3167  156.8542 C.3     1  UNL1        0.0937
      6 N         142.5860  137.5957  156.5690 N.am    1  UNL1       -0.2761
      7 C         143.4045  136.6007  155.8007 C.2     1  UNL1        0.2490
      8 O         144.8505  136.8796  155.5155 O.2     1  UNL1       -0.2699
      9 C         143.2136  138.8696  157.0520 C.3     1  UNL1        0.0937
     10 C         142.3951  139.8645  157.8202 C.3     1  UNL1        0.0216
     11 C         141.2169  140.9231  158.7294 C.3     1  UNL1        0.0092
     12 N         138.7651  140.8186  164.6567 N.3     1  UNL1       -0.2725
     13 C         137.9330  142.0661  164.6908 C.3     1  UNL1        0.0739
     14 C         137.5671  142.9775  163.5570 C.3     1  UNL1        0.0388
     15 C         137.9430  142.8666  162.1092 C.3     1  UNL1        0.0949
     16 N         138.7776  141.8168  161.4374 N.am    1  UNL1       -0.2781
     17 C         138.9732  141.9877  159.9601 C.2     1  UNL1        0.2252
     18 O         138.3503  143.1536  159.2510 O.2     1  UNL1       -0.2749
     19 C         139.4424  140.6186  162.0476 C.3     1  UNL1        0.1107
     20 C         139.4369  140.1743  163.4803 C.3     1  UNL1        0.0938
     21 C         140.0274  140.5736  166.9143 C.3     1  UNL1        0.0173
     22 C         138.9500  140.1232  165.9729 C.3     1  UNL1        0.0576
     23 C         138.0573  138.9775  166.3476 C.3     1  UNL1        0.0173
     24 C         142.7770  135.3268  155.3177 C.ar    1  UNL1        0.0536
     25 C         142.6223  134.1649  156.2538 C.ar    1  UNL1        0.0045
     26 C         141.9947  132.8910  155.7707 C.ar    1  UNL1        0.0001
     27 C         141.5219  132.7789  154.3516 C.ar    1  UNL1        0.0000
     28 C         141.6765  133.9408  153.4156 C.ar    1  UNL1        0.0001
     29 C         142.3041  135.2147  153.8986 C.ar    1  UNL1        0.0045
@<TRIPOS>BOND
     1    21    22    1
     2    22    23    1
     3    22    12    1
     4    12    13    1
     5    13    14    1
     6    14    15    1
     7    15    16    1
     8    16    17   am
     9    17    18    2
    10    17     1    1
    11     1     2    1
    12     2     3    1
    13     3     4    1
    14     4     5    1
    15     5     6    1
    16     6     7   am
    17     7     8    2
    18     7    24    1
    19    24    25   ar
    20    25    26   ar
    21    26    27   ar
    22    27    28   ar
    23    28    29   ar
    24     6     9    1
    25     9    10    1
    26     3    11    1
    27    16    19    1
    28    19    20    1
    29    20    12    1
    30    11     1    1
    31    10     3    1
    32    29    24   ar
@<TRIPOS>MOLECULE
*****
 29 32 0 0 0
SMALL
GASTEIGER

@<TRIPOS>ATOM
      1 C         141.9160  138.2549  158.0602 C.3     1  UNL1        0.0767
      2 C         141.6011  138.0874  159.5172 C.3     1  UNL1        0.0092
      3 C         142.7202  139.0231  159.8668 C.3     1  UNL1        0.0042
      4 C         142.1264  138.6191  161.1836 C.3     1  UNL1        0.0216
      5 C         142.6950  139.1623  162.4609 C.3     1  UNL1        0.0937
      6 N         143.8576  140.1094  162.4214 N.am    1  UNL1       -0.2761
      7 C         144.4262  140.6525  163.6988 C.2     1  UNL1        0.2490
      8 O         145.5888  141.5996  163.6592 O.2     1  UNL1       -0.2699
      9 C         144.4515  140.5133  161.1045 C.3     1  UNL1        0.0937
     10 C         143.8828  139.9701  159.8272 C.3     1  UNL1        0.0216
     11 C         143.0352  139.1905  158.4098 C.3     1  UNL1        0.0092
     12 N         143.2994  133.4138  155.6941 N.3     1  UNL1       -0.2725
     13 C         142.3733  133.5518  154.5223 C.3     1  UNL1        0.0739
     14 C         141.4311  134.6741  154.2020 C.3     1  UNL1        0.0388
     15 C         141.1822  135.9356  154.9745 C.3     1  UNL1        0.0949
     16 N         141.8140  136.3863  156.2581 N.am    1  UNL1       -0.2781
     17 C         141.3473  137.7117  156.7829 C.2     1  UNL1        0.2252
     18 O         140.3120  138.4940  156.0305 O.2     1  UNL1       -0.2749
     19 C         142.8508  135.6869  157.0862 C.3     1  UNL1        0.1107
     20 C         143.5119  134.3640  156.8352 C.3     1  UNL1        0.0938
     21 C         145.1614  131.9746  156.7950 C.3     1  UNL1        0.0173
     22 C         144.1217  132.1598  155.7298 C.3     1  UNL1        0.0576
     23 C         143.9042  131.0909  154.7001 C.3     1  UNL1        0.0173
     24 C         143.8324  140.2486  165.0156 C.ar    1  UNL1        0.0536
     25 C         143.9764  138.8370  165.5019 C.ar    1  UNL1        0.0045
     26 C         143.3825  138.4331  166.8188 C.ar    1  UNL1        0.0001
     27 C         142.6445  139.4408  167.6494 C.ar    1  UNL1        0.0000
     28 C         142.5005  140.8525  167.1631 C.ar    1  UNL1        0.0001
     29 C         143.0944  141.2564  165.8462 C.ar    1  UNL1        0.0045
@<TRIPOS>BOND
     1    21    22    1
     2    22    23    1
     3    22    12    1
     4    12    13    1
     5    13    14    1
     6    14    15    1
     7    15    16    1
     8    16    17   am
     9    17    18    2
    10    17     1    1
    11     1     2    1
    12     2     3    1
    13     3     4    1
    14     4     5    1
    15     5     6    1
    16     6     7   am
    17     7     8    2
    18     7    24    1
    19    24    25   ar
    20    25    26   ar
    21    26    27   ar
    22    27    28   ar
    23    28    29   ar
    24     6     9    1
    25     9    10    1
    26     3    11    1
    27    16    19    1
    28    19    20    1
    29    20    12    1
    30    11     1    1
    31    10     3    1
    32    29    24   ar
@<TRIPOS>MOLECULE
*****
 29 32 0 0 0
SMALL
GASTEIGER

@<TRIPOS>ATOM
      1 C         138.7547  140.7392  161.2009 C.3     1  UNL1        0.0767
      2 C         138.4576  141.3643  162.5317 C.3     1  UNL1        0.0092
      3 C         139.6384  140.6568  163.1277 C.3     1  UNL1        0.0042
      4 C         139.0459  141.4437  164.2589 C.3     1  UNL1        0.0216
      5 C         139.6707  141.3854  165.6212 C.3     1  UNL1        0.0937
      6 N         140.8882  140.5401  165.8524 N.am    1  UNL1       -0.2761
      7 C         141.5131  140.4819  167.2149 C.2     1  UNL1        0.2490
      8 O         142.7305  139.6366  167.4461 O.2     1  UNL1       -0.2699
      9 C         141.4807  139.7532  164.7213 C.3     1  UNL1        0.0937
     10 C         140.8559  139.8116  163.3589 C.3     1  UNL1        0.0216
     11 C         139.9355  140.0317  161.7969 C.3     1  UNL1        0.0092
     12 N         139.7935  144.5853  157.3180 N.3     1  UNL1       -0.2725
     13 C         138.8558  144.0186  156.2936 C.3     1  UNL1        0.0739
     14 C         137.9783  142.8065  156.3981 C.3     1  UNL1        0.0388
     15 C         137.8219  141.8618  157.5527 C.3     1  UNL1        0.0949
     16 N         138.5043  141.8959  158.8881 N.am    1  UNL1       -0.2781
     17 C         138.1298  140.7975  159.8385 C.2     1  UNL1        0.2252
     18 O         137.1304  139.7575  159.4266 O.2     1  UNL1       -0.2749
     19 C         139.5117  142.8830  159.3986 C.3     1  UNL1        0.1107
     20 C         140.0855  144.0800  158.6999 C.3     1  UNL1        0.0938
     21 C         139.8121  146.9402  156.2206 C.3     1  UNL1        0.0173
     22 C         140.5379  145.8208  156.9062 C.3     1  UNL1        0.0576
     23 C         142.0081  145.9368  157.1800 C.3     1  UNL1        0.0173
     24 C         140.9205  141.2688  168.3461 C.ar    1  UNL1        0.0536
     25 C         139.8352  140.6684  169.1897 C.ar    1  UNL1        0.0045
     26 C         139.2426  141.4554  170.3209 C.ar    1  UNL1        0.0001
     27 C         139.7354  142.8426  170.6085 C.ar    1  UNL1        0.0000
     28 C         140.8207  143.4430  169.7649 C.ar    1  UNL1        0.0001
     29 C         141.4132  142.6561  168.6337 C.ar    1  UNL1        0.0045
@<TRIPOS>BOND
     1    21    22    1
     2    22    23    1
     3    22    12    1
     4    12    13    1
     5    13    14    1
     6    14    15    1
     7    15    16    1
     8    16    17   am
     9    17    18    2
    10    17     1    1
    11     1     2    1
    12     2     3    1
    13     3     4    1
    14     4     5    1
    15     5     6    1
    16     6     7   am
    17     7     8    2
    18     7    24    1
    19    24    25   ar
    20    25    26   ar
    21    26    27   ar
    22    27    28   ar
    23    28    29   ar
    24     6     9    1
    25     9    10    1
    26     3    11    1
    27    16    19    1
    28    19    20    1
    29    20    12    1
    30    11     1    1
    31    10     3    1
    32    29    24   ar
@<TRIPOS>MOLECULE
*****
 29 32 0 0 0
SMALL
GASTEIGER

@<TRIPOS>ATOM
      1 C         138.3632  139.1445  165.0335 C.3     1  UNL1        0.0767
      2 C         139.1961  138.4087  164.0261 C.3     1  UNL1        0.0092
      3 C         138.7276  139.3468  162.9534 C.3     1  UNL1        0.0042
      4 C         139.6533  138.3932  162.2580 C.3     1  UNL1        0.0216
      5 C         139.9109  138.5362  160.7872 C.3     1  UNL1        0.0937
      6 N         139.2428  139.6328  160.0119 N.am    1  UNL1       -0.2761
      7 C         139.5004  139.7758  158.5411 C.2     1  UNL1        0.2490
      8 O         138.8322  140.8724  157.7658 O.2     1  UNL1       -0.2699
      9 C         138.3170  140.5864  160.7074 C.3     1  UNL1        0.0937
     10 C         138.0594  140.4433  162.1781 C.3     1  UNL1        0.0216
     11 C         137.8947  140.0826  163.9609 C.3     1  UNL1        0.0092
     12 N         141.2046  141.6846  169.0860 N.3     1  UNL1       -0.2725
     13 C         140.4176  141.0880  170.2150 C.3     1  UNL1        0.0739
     14 C         139.2640  140.1315  170.1479 C.3     1  UNL1        0.0388
     15 C         138.6125  139.5356  168.9353 C.3     1  UNL1        0.0949
     16 N         138.9536  139.7489  167.4903 N.am    1  UNL1       -0.2781
     17 C         138.1057  139.0014  166.5042 C.2     1  UNL1        0.2252
     18 O         137.0002  138.1110  166.9889 O.2     1  UNL1       -0.2749
     19 C         140.0305  140.6108  166.9009 C.3     1  UNL1        0.1107
     20 C         141.0323  141.4723  167.6111 C.3     1  UNL1        0.0938
     21 C         143.7016  142.3931  168.9714 C.3     1  UNL1        0.0173
     22 C         142.3100  142.6169  169.4845 C.3     1  UNL1        0.0576
     23 C         142.0237  143.7732  170.3962 C.3     1  UNL1        0.0173
     24 C         140.4261  138.8223  157.8457 C.ar    1  UNL1        0.0536
     25 C         139.8682  137.6603  157.0785 C.ar    1  UNL1        0.0045
     26 C         140.7941  136.7067  156.3831 C.ar    1  UNL1        0.0001
     27 C         142.2777  136.9152  156.4547 C.ar    1  UNL1        0.0000
     28 C         142.8357  138.0772  157.2218 C.ar    1  UNL1        0.0001
     29 C         141.9099  139.0307  157.9173 C.ar    1  UNL1        0.0045
@<TRIPOS>BOND
     1    21    22    1
     2    22    23    1
     3    22    12    1
     4    12    13    1
     5    13    14    1
     6    14    15    1
     7    15    16    1
     8    16    17   am
     9    17    18    2
    10    17     1    1
    11     1     2    1
    12     2     3    1
    13     3     4    1
    14     4     5    1
    15     5     6    1
    16     6     7   am
    17     7     8    2
    18     7    24    1
    19    24    25   ar
    20    25    26   ar
    21    26    27   ar
    22    27    28   ar
    23    28    29   ar
    24     6     9    1
    25     9    10    1
    26     3    11    1
    27    16    19    1
    28    19    20    1
    29    20    12    1
    30    11     1    1
    31    10     3    1
    32    29    24   ar
@<TRIPOS>MOLECULE
*****
 29 32 0 0 0
SMALL
GASTEIGER

@<TRIPOS>ATOM
      1 C         140.0679  141.2534  159.9353 C.3     1  UNL1        0.0767
      2 C         139.8512  139.8698  159.3981 C.3     1  UNL1        0.0092
      3 C         141.1886  139.9233  158.7207 C.3     1  UNL1        0.0042
      4 C         140.6331  138.5730  158.3771 C.3     1  UNL1        0.0216
      5 C         141.4255  137.6325  157.5183 C.3     1  UNL1        0.0937
      6 N         142.7733  138.0424  157.0031 N.am    1  UNL1       -0.2761
      7 C         143.5657  137.1018  156.1442 C.2     1  UNL1        0.2490
      8 O         144.9135  137.5116  155.6291 O.2     1  UNL1       -0.2699
      9 C         143.3288  139.3927  157.3467 C.3     1  UNL1        0.0937
     10 C         142.5364  140.3331  158.2056 C.3     1  UNL1        0.0216
     11 C         141.4052  141.3069  159.2580 C.3     1  UNL1        0.0092
     12 N         140.9060  142.1826  165.3559 N.3     1  UNL1       -0.2725
     13 C         139.7964  143.1804  165.5084 C.3     1  UNL1        0.0739
     14 C         138.8410  143.6829  164.4669 C.3     1  UNL1        0.0388
     15 C         138.7593  143.3119  163.0158 C.3     1  UNL1        0.0949
     16 N         139.6127  142.3467  162.2477 N.am    1  UNL1       -0.2781
     17 C         139.2755  142.1939  160.7941 C.2     1  UNL1        0.2252
     18 O         138.1460  142.9816  160.1994 O.2     1  UNL1       -0.2749
     19 C         140.7587  141.5141  162.7410 C.3     1  UNL1        0.1107
     20 C         141.3343  141.4410  164.1243 C.3     1  UNL1        0.0938
     21 C         141.0142  141.2636  167.7837 C.3     1  UNL1        0.0173
     22 C         141.6913  141.8874  166.5993 C.3     1  UNL1        0.0576
     23 C         143.1537  142.2159  166.6585 C.3     1  UNL1        0.0173
     24 C         143.0103  135.7515  155.8006 C.ar    1  UNL1        0.0536
     25 C         143.2714  134.5815  156.7022 C.ar    1  UNL1        0.0045
     26 C         142.7159  133.2311  156.3585 C.ar    1  UNL1        0.0001
     27 C         141.8993  133.0509  155.1133 C.ar    1  UNL1        0.0000
     28 C         141.6382  134.2209  154.2117 C.ar    1  UNL1        0.0001
     29 C         142.1936  135.5712  154.5553 C.ar    1  UNL1        0.0045
@<TRIPOS>BOND
     1    21    22    1
     2    22    23    1
     3    22    12    1
     4    12    13    1
     5    13    14    1
     6    14    15    1
     7    15    16    1
     8    16    17   am
     9    17    18    2
    10    17     1    1
    11     1     2    1
    12     2     3    1
    13     3     4    1
    14     4     5    1
    15     5     6    1
    16     6     7   am
    17     7     8    2
    18     7    24    1
    19    24    25   ar
    20    25    26   ar
    21    26    27   ar
    22    27    28   ar
    23    28    29   ar
    24     6     9    1
    25     9    10    1
    26     3    11    1
    27    16    19    1
    28    19    20    1
    29    20    12    1
    30    11     1    1
    31    10     3    1
    32    29    24   ar
@<TRIPOS>MOLECULE
*****
 29 32 0 0 0
SMALL
GASTEIGER

@<TRIPOS>ATOM
      1 C         141.8214  138.3341  157.4021 C.3     1  UNL1        0.0767
      2 C         140.7761  138.4754  158.4686 C.3     1  UNL1        0.0092
      3 C         141.8394  138.3853  159.5229 C.3     1  UNL1        0.0042
      4 C         140.5545  138.5450  160.2801 C.3     1  UNL1        0.0216
      5 C         140.5672  138.5812  161.7796 C.3     1  UNL1        0.0937
      6 N         141.8648  138.4576  162.5218 N.am    1  UNL1       -0.2761
      7 C         141.8775  138.4938  164.0214 C.2     1  UNL1        0.2490
      8 O         143.1751  138.3703  164.7636 O.2     1  UNL1       -0.2699
      9 C         143.1497  138.2979  161.7646 C.3     1  UNL1        0.0937
     10 C         143.1370  138.2618  160.2651 C.3     1  UNL1        0.0216
     11 C         142.8847  138.2441  158.4564 C.3     1  UNL1        0.0092
     12 N         141.7809  133.7375  154.2689 N.3     1  UNL1       -0.2725
     13 C         141.7721  134.4559  152.9522 C.3     1  UNL1        0.0739
     14 C         141.7744  135.9333  152.6930 C.3     1  UNL1        0.0388
     15 C         141.7863  137.0571  153.6863 C.3     1  UNL1        0.0949
     16 N         141.7986  136.9813  155.1843 N.am    1  UNL1       -0.2781
     17 C         141.8087  138.2980  155.9027 C.2     1  UNL1        0.2252
     18 O         141.8061  139.5785  155.1215 O.2     1  UNL1       -0.2749
     19 C         141.8022  135.7627  156.0589 C.3     1  UNL1        0.1107
     20 C         141.7943  134.3190  155.6516 C.3     1  UNL1        0.0938
     21 C         141.9180  131.4245  155.4443 C.3     1  UNL1        0.0173
     22 C         141.7757  132.2394  154.1931 C.3     1  UNL1        0.0576
     23 C         141.6281  131.5562  152.8658 C.3     1  UNL1        0.0173
     24 C         140.5926  138.6535  164.7786 C.ar    1  UNL1        0.0536
     25 C         139.7046  137.4665  165.0080 C.ar    1  UNL1        0.0045
     26 C         138.4197  137.6263  165.7653 C.ar    1  UNL1        0.0001
     27 C         138.0227  138.9730  166.2931 C.ar    1  UNL1        0.0000
     28 C         138.9106  140.1600  166.0638 C.ar    1  UNL1        0.0001
     29 C         140.1955  140.0003  165.3065 C.ar    1  UNL1        0.0045
@<TRIPOS>BOND
     1    21    22    1
     2    22    23    1
     3    22    12    1
     4    12    13    1
     5    13    14    1
     6    14    15    1
     7    15    16    1
     8    16    17   am
     9    17    18    2
    10    17     1    1
    11     1     2    1
    12     2     3    1
    13     3     4    1
    14     4     5    1
    15     5     6    1
    16     6     7   am
    17     7     8    2
    18     7    24    1
    19    24    25   ar
    20    25    26   ar
    21    26    27   ar
    22    27    28   ar
    23    28    29   ar
    24     6     9    1
    25     9    10    1
    26     3    11    1
    27    16    19    1
    28    19    20    1
    29    20    12    1
    30    11     1    1
    31    10     3    1
    32    29    24   ar
@<TRIPOS>MOLECULE
*****
 29 32 0 0 0
SMALL
GASTEIGER

@<TRIPOS>ATOM
      1 C         139.8367  142.9628  159.2797 C.3     1  UNL1        0.0767
      2 C         139.1552  142.7455  160.5982 C.3     1  UNL1        0.0092
      3 C         140.1637  141.6908  160.9457 C.3     1  UNL1        0.0042
      4 C         139.2444  141.7539  162.1293 C.3     1  UNL1        0.0216
      5 C         139.4756  140.8545  163.3072 C.3     1  UNL1        0.0937
      6 N         140.6261  139.8920  163.3016 N.am    1  UNL1       -0.2761
      7 C         140.8572  138.9926  164.4796 C.2     1  UNL1        0.2490
      8 O         142.0077  138.0301  164.4740 O.2     1  UNL1       -0.2699
      9 C         141.5453  139.8289  162.1180 C.3     1  UNL1        0.0937
     10 C         141.3141  140.7283  160.9400 C.3     1  UNL1        0.0216
     11 C         140.8451  141.9081  159.6272 C.3     1  UNL1        0.0092
     12 N         136.1767  142.0700  155.1863 N.3     1  UNL1       -0.2725
     13 C         136.5008  143.3197  154.4228 C.3     1  UNL1        0.0739
     14 C         137.5034  144.3849  154.7547 C.3     1  UNL1        0.0388
     15 C         138.4294  144.4635  155.9320 C.3     1  UNL1        0.0949
     16 N         138.5817  143.4963  157.0684 N.am    1  UNL1       -0.2781
     17 C         139.6055  143.8622  158.1018 C.2     1  UNL1        0.2252
     18 O         140.3981  145.1274  157.9572 O.2     1  UNL1       -0.2749
     19 C         137.8454  142.2116  157.3080 C.3     1  UNL1        0.1107
     20 C         136.7751  141.5768  156.4704 C.3     1  UNL1        0.0938
     21 C         135.4746  140.1900  153.5361 C.3     1  UNL1        0.0173
     22 C         135.1137  141.1981  154.5866 C.3     1  UNL1        0.0576
     23 C         133.6895  141.3341  155.0375 C.3     1  UNL1        0.0173
     24 C         139.9380  139.0557  165.6632 C.ar    1  UNL1        0.0536
     25 C         140.3121  139.8784  166.8604 C.ar    1  UNL1        0.0045
     26 C         139.3928  139.9415  168.0440 C.ar    1  UNL1        0.0001
     27 C         138.0994  139.1819  168.0304 C.ar    1  UNL1        0.0000
     28 C         137.7253  138.3592  166.8332 C.ar    1  UNL1        0.0001
     29 C         138.6445  138.2961  165.6497 C.ar    1  UNL1        0.0045
@<TRIPOS>BOND
     1    21    22    1
     2    22    23    1
     3    22    12    1
     4    12    13    1
     5    13    14    1
     6    14    15    1
     7    15    16    1
     8    16    17   am
     9    17    18    2
    10    17     1    1
    11     1     2    1
    12     2     3    1
    13     3     4    1
    14     4     5    1
    15     5     6    1
    16     6     7   am
    17     7     8    2
    18     7    24    1
    19    24    25   ar
    20    25    26   ar
    21    26    27   ar
    22    27    28   ar
    23    28    29   ar
    24     6     9    1
    25     9    10    1
    26     3    11    1
    27    16    19    1
    28    19    20    1
    29    20    12    1
    30    11     1    1
    31    10     3    1
    32    29    24   ar
