@<TRIPOS>MOLECULE
*****
 32 36 0 0 0
SMALL
GASTEIGER

@<TRIPOS>ATOM
      1 C         143.2098  138.6479  159.6263 C.ar    1  UNL1        0.1233
      2 C         142.4812  137.6633  158.7605 C.ar    1  UNL1        0.1179
      3 N         142.8183  137.9652  157.3304 N.ar    1  UNL1       -0.2257
      4 N         143.7553  139.1364  157.3122 N.ar    1  UNL1       -0.0635
      5 N         143.9973  139.5584  158.7312 N.ar    1  UNL1       -0.1287
      6 C         144.1349  139.5709  163.3736 C.ar    1  UNL1        0.1547
      7 C         144.1848  139.5077  161.8758 C.ar    1  UNL1        0.0400
      8 C         143.1599  138.7111  161.1241 C.ar    1  UNL1        0.0241
      9 C         142.0850  137.9777  161.8703 C.ar    1  UNL1        0.0033
     10 C         142.0351  138.0409  163.3681 C.ar    1  UNL1        0.0207
     11 C         143.0601  138.8375  164.1197 C.ar    1  UNL1        0.0994
     12 N         143.0101  138.9006  165.6176 N.ar    1  UNL1       -0.2839
     13 C         143.7830  138.0296  166.5631 C.ar    1  UNL1        0.1826
     14 N         143.4290  138.4366  167.9628 N.ar    1  UNL1       -0.2280
     15 C         142.4373  139.5592  167.8824 C.ar    1  UNL1        0.0786
     16 C         141.8140  140.2701  169.0468 C.3     1  UNL1        0.0538
     17 C         142.1785  139.8460  166.4330 C.ar    1  UNL1        0.0963
     18 C         145.7234  141.6212  163.5249 C.3     1  UNL1        0.2525
     19 O         145.1599  140.3674  164.1252 O.3     1  UNL1       -0.4700
     20 C         142.3079  137.2257  156.1292 C.3     1  UNL1        0.1556
     21 C         142.3552  135.7268  156.0953 C.ar    1  UNL1        0.0022
     22 C         141.2971  134.9595  155.3591 C.ar    1  UNL1       -0.0022
     23 C         141.3444  133.4606  155.3252 C.ar    1  UNL1        0.0029
     24 C         142.4497  132.7290  156.0274 C.ar    1  UNL1        0.0391
     25 C         143.5078  133.4963  156.7635 C.ar    1  UNL1        0.0029
     26 C         143.4604  134.9952  156.7974 C.ar    1  UNL1       -0.0022
     27 C         142.4971  131.2302  155.9934 C.ar    1  UNL1        0.2033
     28 N         141.9729  130.3562  154.8928 N.ar    1  UNL1       -0.0560
     29 O         142.2288  128.9280  155.2734 O.2     1  UNL1       -0.3370
     30 C         142.9110  128.9193  156.6092 C.ar    1  UNL1        0.2371
     31 C         143.3503  127.7016  157.3670 C.3     1  UNL1        0.0978
     32 N         143.0768  130.3421  157.0542 N.ar    1  UNL1       -0.1907
@<TRIPOS>BOND
     1    18    19    1
     2    19     6    1
     3     6     7   ar
     4     7     8   ar
     5     8     1    1
     6     1     2   ar
     7     2     3   ar
     8     3    20    1
     9    20    21    1
    10    21    22   ar
    11    22    23   ar
    12    23    24   ar
    13    24    27    1
    14    27    28   ar
    15    28    29   ar
    16    29    30   ar
    17    30    31    1
    18    30    32   ar
    19    24    25   ar
    20    25    26   ar
    21     3     4   ar
    22     4     5   ar
    23     8     9   ar
    24     9    10   ar
    25    10    11   ar
    26    11    12    1
    27    12    13   ar
    28    13    14   ar
    29    14    15   ar
    30    15    16    1
    31    15    17   ar
    32    11     6   ar
    33    17    12   ar
    34     5     1   ar
    35    26    21   ar
    36    32    27   ar
@<TRIPOS>MOLECULE
*****
 32 36 0 0 0
SMALL
GASTEIGER

@<TRIPOS>ATOM
      1 C         139.4562  138.9776  159.4903 C.ar    1  UNL1        0.1233
      2 C         140.6075  138.3779  158.7387 C.ar    1  UNL1        0.1179
      3 N         140.3361  138.5355  157.2720 N.ar    1  UNL1       -0.2257
      4 N         139.0169  139.2327  157.1169 N.ar    1  UNL1       -0.0635
      5 N         138.4732  139.5059  158.4879 N.ar    1  UNL1       -0.1287
      6 C         138.2601  140.1150  163.0994 C.ar    1  UNL1        0.1547
      7 C         138.4034  140.0541  161.6075 C.ar    1  UNL1        0.0400
      8 C         139.3130  139.0384  160.9822 C.ar    1  UNL1        0.0241
      9 C         140.0793  138.0836  161.8488 C.ar    1  UNL1        0.0033
     10 C         139.9360  138.1444  163.3406 C.ar    1  UNL1        0.0207
     11 C         139.0265  139.1601  163.9660 C.ar    1  UNL1        0.0994
     12 N         138.8832  139.2209  165.4579 N.ar    1  UNL1       -0.2839
     13 C         137.8914  138.4530  166.2805 C.ar    1  UNL1        0.1826
     14 N         138.1019  138.8178  167.7201 N.ar    1  UNL1       -0.2280
     15 C         139.2239  139.8112  167.7873 C.ar    1  UNL1        0.0786
     16 C         139.7675  140.4443  169.0338 C.3     1  UNL1        0.0538
     17 C         139.7067  140.0603  166.3892 C.ar    1  UNL1        0.0963
     18 C         137.9044  142.4405  164.2018 C.3     1  UNL1        0.2525
     19 O         137.3506  141.1307  163.7248 O.3     1  UNL1       -0.4700
     20 C         141.2273  138.0766  156.1561 C.3     1  UNL1        0.1556
     21 C         141.7498  136.6706  156.1435 C.ar    1  UNL1        0.0022
     22 C         141.0464  135.6162  155.3411 C.ar    1  UNL1       -0.0022
     23 C         141.5690  134.2103  155.3285 C.ar    1  UNL1        0.0029
     24 C         142.7949  133.8586  156.1182 C.ar    1  UNL1        0.0391
     25 C         143.4982  134.9130  156.9205 C.ar    1  UNL1        0.0029
     26 C         142.9756  136.3189  156.9331 C.ar    1  UNL1       -0.0022
     27 C         143.3175  132.4527  156.1056 C.ar    1  UNL1        0.2033
     28 N         144.7620  132.0491  156.0873 N.ar    1  UNL1       -0.0560
     29 O         144.8245  130.5504  156.0794 O.2     1  UNL1       -0.3370
     30 C         143.4186  130.0277  156.0929 C.ar    1  UNL1        0.2371
     31 C         143.0149  128.5831  156.0906 C.3     1  UNL1        0.0978
     32 N         142.4872  131.2034  156.1090 N.ar    1  UNL1       -0.1907
@<TRIPOS>BOND
     1    18    19    1
     2    19     6    1
     3     6     7   ar
     4     7     8   ar
     5     8     1    1
     6     1     2   ar
     7     2     3   ar
     8     3    20    1
     9    20    21    1
    10    21    22   ar
    11    22    23   ar
    12    23    24   ar
    13    24    27    1
    14    27    28   ar
    15    28    29   ar
    16    29    30   ar
    17    30    31    1
    18    30    32   ar
    19    24    25   ar
    20    25    26   ar
    21     3     4   ar
    22     4     5   ar
    23     8     9   ar
    24     9    10   ar
    25    10    11   ar
    26    11    12    1
    27    12    13   ar
    28    13    14   ar
    29    14    15   ar
    30    15    16    1
    31    15    17   ar
    32    11     6   ar
    33    17    12   ar
    34     5     1   ar
    35    26    21   ar
    36    32    27   ar
@<TRIPOS>MOLECULE
*****
 32 36 0 0 0
SMALL
GASTEIGER

@<TRIPOS>ATOM
      1 C         143.2664  138.6544  159.3099 C.ar    1  UNL1        0.1233
      2 C         142.6564  137.5953  158.4404 C.ar    1  UNL1        0.1179
      3 N         142.9933  137.9155  157.0143 N.ar    1  UNL1       -0.2257
      4 N         143.8116  139.1727  157.0023 N.ar    1  UNL1       -0.0635
      5 N         143.9804  139.6293  158.4211 N.ar    1  UNL1       -0.1287
      6 C         141.9819  138.0883  163.0220 C.ar    1  UNL1        0.1547
      7 C         142.0703  138.0166  161.5263 C.ar    1  UNL1        0.0400
      8 C         143.1780  138.7262  160.8056 C.ar    1  UNL1        0.0241
      9 C         144.1973  139.5075  161.5805 C.ar    1  UNL1        0.0033
     10 C         144.1089  139.5792  163.0762 C.ar    1  UNL1        0.0207
     11 C         143.0012  138.8696  163.7969 C.ar    1  UNL1        0.0994
     12 N         142.9128  138.9413  165.2926 N.ar    1  UNL1       -0.2839
     13 C         143.7889  138.2071  166.2639 C.ar    1  UNL1        0.1826
     14 N         143.3503  138.5719  167.6511 N.ar    1  UNL1       -0.2280
     15 C         142.2031  139.5317  167.5373 C.ar    1  UNL1        0.0786
     16 C         141.4573  140.1538  168.6804 C.3     1  UNL1        0.0538
     17 C         141.9327  139.7600  166.0797 C.ar    1  UNL1        0.0963
     18 C         139.4486  137.6030  163.3335 C.3     1  UNL1        0.2525
     19 O         140.8741  137.3787  163.7427 O.3     1  UNL1       -0.4700
     20 C         142.5838  137.1186  155.8112 C.3     1  UNL1        0.1556
     21 C         142.5606  135.6202  155.8765 C.ar    1  UNL1        0.0022
     22 C         141.3755  134.8649  155.3516 C.ar    1  UNL1       -0.0022
     23 C         141.3523  133.3665  155.4169 C.ar    1  UNL1        0.0029
     24 C         142.5139  132.6234  156.0071 C.ar    1  UNL1        0.0391
     25 C         143.6988  133.3787  156.5320 C.ar    1  UNL1        0.0029
     26 C         143.7221  134.8770  156.4667 C.ar    1  UNL1       -0.0022
     27 C         142.4907  131.1250  156.0725 C.ar    1  UNL1        0.2033
     28 N         143.2904  130.2709  157.0110 N.ar    1  UNL1       -0.0560
     29 O         142.9576  128.8357  156.7292 O.2     1  UNL1       -0.3370
     30 C         141.9521  128.8028  155.6166 C.ar    1  UNL1        0.2371
     31 C         141.3423  127.5712  155.0155 C.3     1  UNL1        0.0978
     32 N         141.6636  130.2177  155.2107 N.ar    1  UNL1       -0.1907
@<TRIPOS>BOND
     1    18    19    1
     2    19     6    1
     3     6     7   ar
     4     7     8   ar
     5     8     1    1
     6     1     2   ar
     7     2     3   ar
     8     3    20    1
     9    20    21    1
    10    21    22   ar
    11    22    23   ar
    12    23    24   ar
    13    24    27    1
    14    27    28   ar
    15    28    29   ar
    16    29    30   ar
    17    30    31    1
    18    30    32   ar
    19    24    25   ar
    20    25    26   ar
    21     3     4   ar
    22     4     5   ar
    23     8     9   ar
    24     9    10   ar
    25    10    11   ar
    26    11    12    1
    27    12    13   ar
    28    13    14   ar
    29    14    15   ar
    30    15    16    1
    31    15    17   ar
    32    11     6   ar
    33    17    12   ar
    34     5     1   ar
    35    26    21   ar
    36    32    27   ar
@<TRIPOS>MOLECULE
*****
 32 36 0 0 0
SMALL
GASTEIGER

@<TRIPOS>ATOM
      1 C         143.6820  142.5276  161.2728 C.ar    1  UNL1        0.1233
      2 C         143.2768  141.6144  162.3917 C.ar    1  UNL1        0.1179
      3 N         144.5125  141.2409  163.1557 N.ar    1  UNL1       -0.2257
      4 N         145.6813  141.9233  162.5089 N.ar    1  UNL1       -0.0635
      5 N         145.1680  142.7185  161.3453 N.ar    1  UNL1       -0.1287
      6 C         140.8296  144.7763  159.6736 C.ar    1  UNL1        0.1547
      7 C         141.7490  144.1618  160.6870 C.ar    1  UNL1        0.0400
      8 C         142.7625  143.1420  160.2593 C.ar    1  UNL1        0.0241
      9 C         142.8566  142.7367  158.8182 C.ar    1  UNL1        0.0033
     10 C         141.9371  143.3512  157.8048 C.ar    1  UNL1        0.0207
     11 C         140.9237  144.3710  158.2325 C.ar    1  UNL1        0.0994
     12 N         140.0042  144.9854  157.2190 N.ar    1  UNL1       -0.2839
     13 C         139.9508  146.4363  156.8420 C.ar    1  UNL1        0.1826
     14 N         138.8903  146.6044  155.7946 N.ar    1  UNL1       -0.2280
     15 C         138.2883  145.2574  155.5242 C.ar    1  UNL1        0.0786
     16 C         137.1905  144.9627  154.5453 C.3     1  UNL1        0.0538
     17 C         138.9767  144.2568  156.4045 C.ar    1  UNL1        0.0963
     18 C         139.7306  146.2107  161.5402 C.3     1  UNL1        0.2525
     19 O         139.8161  145.7960  160.1013 O.3     1  UNL1       -0.4700
     20 C         144.5693  140.3428  164.3557 C.3     1  UNL1        0.1556
     21 C         143.5107  140.4375  165.4142 C.ar    1  UNL1        0.0022
     22 C         142.8275  139.1954  165.9048 C.ar    1  UNL1       -0.0022
     23 C         141.7689  139.2901  166.9633 C.ar    1  UNL1        0.0029
     24 C         141.3935  140.6267  167.5313 C.ar    1  UNL1        0.0391
     25 C         142.0768  141.8687  167.0407 C.ar    1  UNL1        0.0029
     26 C         143.1353  141.7740  165.9822 C.ar    1  UNL1       -0.0022
     27 C         140.3350  140.7214  168.5898 C.ar    1  UNL1        0.2033
     28 N         140.1390  141.8646  169.5410 N.ar    1  UNL1       -0.0560
     29 O         138.9694  141.5392  170.4220 O.2     1  UNL1       -0.3370
     30 C         138.4425  140.1950  170.0153 C.ar    1  UNL1        0.2371
     31 C         137.2764  139.4814  170.6326 C.3     1  UNL1        0.0978
     32 N         139.2865  139.6896  168.8829 N.ar    1  UNL1       -0.1907
@<TRIPOS>BOND
     1    18    19    1
     2    19     6    1
     3     6     7   ar
     4     7     8   ar
     5     8     1    1
     6     1     2   ar
     7     2     3   ar
     8     3    20    1
     9    20    21    1
    10    21    22   ar
    11    22    23   ar
    12    23    24   ar
    13    24    27    1
    14    27    28   ar
    15    28    29   ar
    16    29    30   ar
    17    30    31    1
    18    30    32   ar
    19    24    25   ar
    20    25    26   ar
    21     3     4   ar
    22     4     5   ar
    23     8     9   ar
    24     9    10   ar
    25    10    11   ar
    26    11    12    1
    27    12    13   ar
    28    13    14   ar
    29    14    15   ar
    30    15    16    1
    31    15    17   ar
    32    11     6   ar
    33    17    12   ar
    34     5     1   ar
    35    26    21   ar
    36    32    27   ar
@<TRIPOS>MOLECULE
*****
 32 36 0 0 0
SMALL
GASTEIGER

@<TRIPOS>ATOM
      1 C         142.2189  138.8579  160.1678 C.ar    1  UNL1        0.1233
      2 C         141.6889  138.1112  158.9797 C.ar    1  UNL1        0.1179
      3 N         142.6502  138.3040  157.8445 N.ar    1  UNL1       -0.2257
      4 N         143.7744  139.1699  158.3310 N.ar    1  UNL1       -0.0635
      5 N         143.5077  139.5122  159.7669 N.ar    1  UNL1       -0.1287
      6 C         140.0052  140.1522  163.1968 C.ar    1  UNL1        0.1547
      7 C         140.6508  140.0736  161.8451 C.ar    1  UNL1        0.0400
      8 C         141.5733  138.9365  161.5195 C.ar    1  UNL1        0.0241
      9 C         141.8503  137.8781  162.5456 C.ar    1  UNL1        0.0033
     10 C         141.2048  137.9567  163.8973 C.ar    1  UNL1        0.0207
     11 C         140.2822  139.0938  164.2229 C.ar    1  UNL1        0.0994
     12 N         139.6367  139.1724  165.5746 N.ar    1  UNL1       -0.2839
     13 C         138.3659  138.4898  165.9859 C.ar    1  UNL1        0.1826
     14 N         138.0925  138.8429  167.4178 N.ar    1  UNL1       -0.2280
     15 C         139.1943  139.7438  167.8916 C.ar    1  UNL1        0.0786
     16 C         139.3197  140.3370  169.2636 C.3     1  UNL1        0.0538
     17 C         140.1486  139.9474  166.7524 C.ar    1  UNL1        0.0963
     18 C         139.6270  142.5438  164.1388 C.3     1  UNL1        0.2525
     19 O         139.0827  141.2893  163.5223 O.3     1  UNL1       -0.4700
     20 C         142.5117  137.7315  156.4650 C.3     1  UNL1        0.1556
     21 C         142.3746  136.2495  156.2783 C.ar    1  UNL1        0.0022
     22 C         141.4160  135.7074  155.2596 C.ar    1  UNL1       -0.0022
     23 C         141.2789  134.2254  155.0729 C.ar    1  UNL1        0.0029
     24 C         142.1003  133.2855  155.9047 C.ar    1  UNL1        0.0391
     25 C         143.0588  133.8276  156.9232 C.ar    1  UNL1        0.0029
     26 C         143.1959  135.3096  157.1099 C.ar    1  UNL1       -0.0022
     27 C         141.9632  131.8035  155.7180 C.ar    1  UNL1        0.2033
     28 N         142.8657  130.7546  156.2971 N.ar    1  UNL1       -0.0560
     29 O         142.3597  129.4131  155.8564 O.2     1  UNL1       -0.3370
     30 C         141.1445  129.6328  155.0049 C.ar    1  UNL1        0.2371
     31 C         140.3192  128.5630  154.3534 C.3     1  UNL1        0.0978
     32 N         140.8994  131.1102  154.9194 N.ar    1  UNL1       -0.1907
@<TRIPOS>BOND
     1    18    19    1
     2    19     6    1
     3     6     7   ar
     4     7     8   ar
     5     8     1    1
     6     1     2   ar
     7     2     3   ar
     8     3    20    1
     9    20    21    1
    10    21    22   ar
    11    22    23   ar
    12    23    24   ar
    13    24    27    1
    14    27    28   ar
    15    28    29   ar
    16    29    30   ar
    17    30    31    1
    18    30    32   ar
    19    24    25   ar
    20    25    26   ar
    21     3     4   ar
    22     4     5   ar
    23     8     9   ar
    24     9    10   ar
    25    10    11   ar
    26    11    12    1
    27    12    13   ar
    28    13    14   ar
    29    14    15   ar
    30    15    16    1
    31    15    17   ar
    32    11     6   ar
    33    17    12   ar
    34     5     1   ar
    35    26    21   ar
    36    32    27   ar
@<TRIPOS>MOLECULE
*****
 32 36 0 0 0
SMALL
GASTEIGER

@<TRIPOS>ATOM
      1 C         143.0723  139.0376  160.0037 C.ar    1  UNL1        0.1233
      2 C         142.1319  138.1559  159.2368 C.ar    1  UNL1        0.1179
      3 N         142.5324  138.1970  157.7919 N.ar    1  UNL1       -0.2257
      4 N         143.7203  139.1042  157.6657 N.ar    1  UNL1       -0.0635
      5 N         144.0540  139.6237  159.0327 N.ar    1  UNL1       -0.1287
      6 C         141.7211  139.3647  163.7209 C.ar    1  UNL1        0.1547
      7 C         141.7563  139.1132  162.2426 C.ar    1  UNL1        0.0400
      8 C         143.0372  139.2891  161.4821 C.ar    1  UNL1        0.0241
      9 C         144.2829  139.7166  162.2000 C.ar    1  UNL1        0.0033
     10 C         144.2478  139.9681  163.6783 C.ar    1  UNL1        0.0207
     11 C         142.9669  139.7922  164.4387 C.ar    1  UNL1        0.0994
     12 N         142.9318  140.0437  165.9171 N.ar    1  UNL1       -0.2839
     13 C         142.9626  138.9965  166.9907 C.ar    1  UNL1        0.1826
     14 N         142.9096  139.6922  168.3185 N.ar    1  UNL1       -0.2280
     15 C         142.8459  141.1694  168.0656 C.ar    1  UNL1        0.0786
     16 C         142.7801  142.2412  169.1130 C.3     1  UNL1        0.0538
     17 C         142.8596  141.3866  166.5815 C.ar    1  UNL1        0.0963
     18 C         139.9019  137.8120  164.7354 C.3     1  UNL1        0.2525
     19 O         140.4402  139.1888  164.4814 O.3     1  UNL1       -0.4700
     20 C         141.8625  137.4603  156.6700 C.3     1  UNL1        0.1556
     21 C         142.1538  136.0056  156.4485 C.ar    1  UNL1        0.0022
     22 C         143.2238  135.3246  157.2494 C.ar    1  UNL1       -0.0022
     23 C         143.5151  133.8699  157.0280 C.ar    1  UNL1        0.0029
     24 C         142.7364  133.0962  156.0056 C.ar    1  UNL1        0.0391
     25 C         141.6664  133.7773  155.2048 C.ar    1  UNL1        0.0029
     26 C         141.3752  135.2319  155.4262 C.ar    1  UNL1       -0.0022
     27 C         143.0276  131.6415  155.7842 C.ar    1  UNL1        0.2033
     28 N         142.0188  130.5315  155.7770 N.ar    1  UNL1       -0.0560
     29 O         142.7466  129.2454  155.5194 O.2     1  UNL1       -0.3370
     30 C         144.2052  129.5606  155.3673 C.ar    1  UNL1        0.2371
     31 C         145.2982  128.5690  155.0987 C.3     1  UNL1        0.0978
     32 N         144.3789  131.0415  155.5310 N.ar    1  UNL1       -0.1907
@<TRIPOS>BOND
     1    18    19    1
     2    19     6    1
     3     6     7   ar
     4     7     8   ar
     5     8     1    1
     6     1     2   ar
     7     2     3   ar
     8     3    20    1
     9    20    21    1
    10    21    22   ar
    11    22    23   ar
    12    23    24   ar
    13    24    27    1
    14    27    28   ar
    15    28    29   ar
    16    29    30   ar
    17    30    31    1
    18    30    32   ar
    19    24    25   ar
    20    25    26   ar
    21     3     4   ar
    22     4     5   ar
    23     8     9   ar
    24     9    10   ar
    25    10    11   ar
    26    11    12    1
    27    12    13   ar
    28    13    14   ar
    29    14    15   ar
    30    15    16    1
    31    15    17   ar
    32    11     6   ar
    33    17    12   ar
    34     5     1   ar
    35    26    21   ar
    36    32    27   ar
@<TRIPOS>MOLECULE
*****
 32 36 0 0 0
SMALL
GASTEIGER

@<TRIPOS>ATOM
      1 C         142.5552  139.0166  161.0053 C.ar    1  UNL1        0.1233
      2 C         141.5931  138.4999  159.9771 C.ar    1  UNL1        0.1179
      3 N         142.2900  138.4999  158.6488 N.ar    1  UNL1       -0.2257
      4 N         143.6828  139.0166  158.8561 N.ar    1  UNL1       -0.0635
      5 N         143.8468  139.3360  160.3125 N.ar    1  UNL1       -0.1287
      6 C         142.0352  140.7180  164.5529 C.ar    1  UNL1        0.1547
      7 C         142.3153  140.5500  163.0889 C.ar    1  UNL1        0.0400
      8 C         142.2751  139.1845  162.4694 C.ar    1  UNL1        0.0241
      9 C         141.9547  137.9870  163.3139 C.ar    1  UNL1        0.0033
     10 C         141.6746  138.1549  164.7778 C.ar    1  UNL1        0.0207
     11 C         141.7148  139.5204  165.3973 C.ar    1  UNL1        0.0994
     12 N         141.4346  139.6883  166.8614 N.ar    1  UNL1       -0.2839
     13 C         142.4259  139.5173  167.9741 C.ar    1  UNL1        0.1826
     14 N         141.7179  139.7800  169.2701 N.ar    1  UNL1       -0.2280
     15 C         140.2890  140.1134  168.9584 C.ar    1  UNL1        0.0786
     16 C         139.2225  140.4453  169.9596 C.3     1  UNL1        0.0538
     17 C         140.1140  140.0568  167.4698 C.ar    1  UNL1        0.0963
     18 C         143.3186  142.5560  165.8660 C.3     1  UNL1        0.2525
     19 O         142.0754  142.0835  165.1724 O.3     1  UNL1       -0.4700
     20 C         141.6979  138.0603  157.3426 C.3     1  UNL1        0.1556
     21 C         142.0752  136.7317  156.7574 C.ar    1  UNL1        0.0022
     22 C         143.0302  135.8345  157.4877 C.ar    1  UNL1       -0.0022
     23 C         143.4075  134.5059  156.9025 C.ar    1  UNL1        0.0029
     24 C         142.8300  134.0744  155.5871 C.ar    1  UNL1        0.0391
     25 C         141.8751  134.9716  154.8569 C.ar    1  UNL1        0.0029
     26 C         141.4978  136.3002  155.4421 C.ar    1  UNL1       -0.0022
     27 C         143.2073  132.7459  155.0019 C.ar    1  UNL1        0.2033
     28 N         142.7799  132.2182  153.6644 N.ar    1  UNL1       -0.0560
     29 O         143.3868  130.8578  153.4874 O.2     1  UNL1       -0.3370
     30 C         144.1891  130.5448  154.7155 C.ar    1  UNL1        0.2371
     31 C         144.9660  129.2859  154.9640 C.3     1  UNL1        0.0978
     32 N         144.0782  131.7117  155.6515 N.ar    1  UNL1       -0.1907
@<TRIPOS>BOND
     1    18    19    1
     2    19     6    1
     3     6     7   ar
     4     7     8   ar
     5     8     1    1
     6     1     2   ar
     7     2     3   ar
     8     3    20    1
     9    20    21    1
    10    21    22   ar
    11    22    23   ar
    12    23    24   ar
    13    24    27    1
    14    27    28   ar
    15    28    29   ar
    16    29    30   ar
    17    30    31    1
    18    30    32   ar
    19    24    25   ar
    20    25    26   ar
    21     3     4   ar
    22     4     5   ar
    23     8     9   ar
    24     9    10   ar
    25    10    11   ar
    26    11    12    1
    27    12    13   ar
    28    13    14   ar
    29    14    15   ar
    30    15    16    1
    31    15    17   ar
    32    11     6   ar
    33    17    12   ar
    34     5     1   ar
    35    26    21   ar
    36    32    27   ar
@<TRIPOS>MOLECULE
*****
 32 36 0 0 0
SMALL
GASTEIGER

@<TRIPOS>ATOM
      1 C         140.6388  139.1460  161.3138 C.ar    1  UNL1        0.1233
      2 C         141.5173  139.1861  160.0987 C.ar    1  UNL1        0.1179
      3 N         140.6769  138.8336  158.9073 N.ar    1  UNL1       -0.2257
      4 N         139.2789  138.5757  159.3861 N.ar    1  UNL1       -0.0635
      5 N         139.2554  138.7688  160.8734 N.ar    1  UNL1       -0.1287
      6 C         140.4884  139.7048  165.2400 C.ar    1  UNL1        0.1547
      7 C         140.0591  139.4180  163.8318 C.ar    1  UNL1        0.0400
      8 C         141.0683  139.4329  162.7222 C.ar    1  UNL1        0.0241
      9 C         142.5069  139.7345  163.0209 C.ar    1  UNL1        0.0033
     10 C         142.9363  140.0213  164.4291 C.ar    1  UNL1        0.0207
     11 C         141.9271  140.0064  165.5387 C.ar    1  UNL1        0.0994
     12 N         142.3566  140.2933  166.9471 N.ar    1  UNL1       -0.2839
     13 C         142.6230  139.2720  168.0129 C.ar    1  UNL1        0.1826
     14 N         143.0261  139.9993  169.2614 N.ar    1  UNL1       -0.2280
     15 C         143.0088  141.4701  168.9671 C.ar    1  UNL1        0.0786
     16 C         143.3460  142.5666  169.9334 C.3     1  UNL1        0.0538
     17 C         142.5950  141.6517  167.5368 C.ar    1  UNL1        0.0963
     18 C         138.1565  139.0110  166.1513 C.3     1  UNL1        0.2525
     19 O         139.4792  139.6899  166.3496 O.3     1  UNL1       -0.4700
     20 C         141.1511  138.7532  157.4865 C.3     1  UNL1        0.1556
     21 C         141.5853  137.4364  156.9141 C.ar    1  UNL1        0.0022
     22 C         142.8361  136.7768  157.4149 C.ar    1  UNL1       -0.0022
     23 C         143.2703  135.4601  156.8425 C.ar    1  UNL1        0.0029
     24 C         142.4538  134.8028  155.7695 C.ar    1  UNL1        0.0391
     25 C         141.2031  135.4624  155.2688 C.ar    1  UNL1        0.0029
     26 C         140.7689  136.7792  155.8412 C.ar    1  UNL1       -0.0022
     27 C         142.8880  133.4861  155.1971 C.ar    1  UNL1        0.2033
     28 N         142.5071  132.9405  153.8528 N.ar    1  UNL1       -0.0560
     29 O         143.1630  131.6009  153.6935 O.2     1  UNL1       -0.3370
     30 C         143.9492  131.3186  154.9394 C.ar    1  UNL1        0.2371
     31 C         144.7626  130.0874  155.2087 C.3     1  UNL1        0.0978
     32 N         143.7792  132.4837  155.8687 N.ar    1  UNL1       -0.1907
@<TRIPOS>BOND
     1    18    19    1
     2    19     6    1
     3     6     7   ar
     4     7     8   ar
     5     8     1    1
     6     1     2   ar
     7     2     3   ar
     8     3    20    1
     9    20    21    1
    10    21    22   ar
    11    22    23   ar
    12    23    24   ar
    13    24    27    1
    14    27    28   ar
    15    28    29   ar
    16    29    30   ar
    17    30    31    1
    18    30    32   ar
    19    24    25   ar
    20    25    26   ar
    21     3     4   ar
    22     4     5   ar
    23     8     9   ar
    24     9    10   ar
    25    10    11   ar
    26    11    12    1
    27    12    13   ar
    28    13    14   ar
    29    14    15   ar
    30    15    16    1
    31    15    17   ar
    32    11     6   ar
    33    17    12   ar
    34     5     1   ar
    35    26    21   ar
    36    32    27   ar
@<TRIPOS>MOLECULE
*****
 32 36 0 0 0
SMALL
GASTEIGER

@<TRIPOS>ATOM
      1 C         141.8462  143.5347  161.3635 C.ar    1  UNL1        0.1233
      2 C         141.5243  142.6871  160.1686 C.ar    1  UNL1        0.1179
      3 N         141.4223  143.5891  158.9744 N.ar    1  UNL1       -0.2257
      4 N         141.6812  144.9942  159.4313 N.ar    1  UNL1       -0.0635
      5 N         141.9432  144.9605  160.9079 N.ar    1  UNL1       -0.1287
      6 C         143.3928  141.6648  164.5039 C.ar    1  UNL1        0.1547
      7 C         143.2014  142.1567  163.0998 C.ar    1  UNL1        0.0400
      8 C         142.0376  143.0428  162.7676 C.ar    1  UNL1        0.0241
      9 C         141.0652  143.4370  163.8395 C.ar    1  UNL1        0.0033
     10 C         141.2566  142.9451  165.2435 C.ar    1  UNL1        0.0207
     11 C         142.4204  142.0590  165.5757 C.ar    1  UNL1        0.0994
     12 N         142.6117  141.5671  166.9799 N.ar    1  UNL1       -0.2839
     13 C         143.2055  142.3482  168.1145 C.ar    1  UNL1        0.1826
     14 N         143.2036  141.4716  169.3317 N.ar    1  UNL1       -0.2280
     15 C         142.6088  140.1487  168.9493 C.ar    1  UNL1        0.0786
     16 C         142.4139  138.9732  169.8605 C.3     1  UNL1        0.0538
     17 C         142.2430  140.2078  167.4958 C.ar    1  UNL1        0.0963
     18 C         144.7163  139.4586  164.1420 C.3     1  UNL1        0.2525
     19 O         144.5566  140.7787  164.8361 O.3     1  UNL1       -0.4700
     20 C         141.1154  143.1611  157.5699 C.3     1  UNL1        0.1556
     21 C         139.7507  142.6426  157.2251 C.ar    1  UNL1        0.0022
     22 C         139.3738  141.2331  157.5737 C.ar    1  UNL1       -0.0022
     23 C         138.0092  140.7146  157.2289 C.ar    1  UNL1        0.0029
     24 C         137.0214  141.6055  156.5356 C.ar    1  UNL1        0.0391
     25 C         137.3983  143.0149  156.1871 C.ar    1  UNL1        0.0029
     26 C         138.7630  143.5334  156.5318 C.ar    1  UNL1       -0.0022
     27 C         135.6568  141.0870  156.1908 C.ar    1  UNL1        0.2033
     28 N         134.7978  141.5535  155.0530 N.ar    1  UNL1       -0.0560
     29 O         133.5217  140.7658  155.0823 O.2     1  UNL1       -0.3370
     30 C         133.5919  139.8124  156.2382 C.ar    1  UNL1        0.2371
     31 C         132.5292  138.8325  156.6387 C.3     1  UNL1        0.0978
     32 N         134.9115  140.0109  156.9233 N.ar    1  UNL1       -0.1907
@<TRIPOS>BOND
     1    18    19    1
     2    19     6    1
     3     6     7   ar
     4     7     8   ar
     5     8     1    1
     6     1     2   ar
     7     2     3   ar
     8     3    20    1
     9    20    21    1
    10    21    22   ar
    11    22    23   ar
    12    23    24   ar
    13    24    27    1
    14    27    28   ar
    15    28    29   ar
    16    29    30   ar
    17    30    31    1
    18    30    32   ar
    19    24    25   ar
    20    25    26   ar
    21     3     4   ar
    22     4     5   ar
    23     8     9   ar
    24     9    10   ar
    25    10    11   ar
    26    11    12    1
    27    12    13   ar
    28    13    14   ar
    29    14    15   ar
    30    15    16    1
    31    15    17   ar
    32    11     6   ar
    33    17    12   ar
    34     5     1   ar
    35    26    21   ar
    36    32    27   ar
