@<TRIPOS>MOLECULE
*****
 27 29 0 0 0
SMALL
GASTEIGER

@<TRIPOS>ATOM
      1 C         140.3526  139.6460  166.9583 C.ar    1  UNL1       -0.0069
      2 C         138.8745  139.4789  166.7656 C.ar    1  UNL1        0.0002
      3 C         138.3483  138.8508  165.5091 C.ar    1  UNL1        0.0366
      4 C         139.3002  138.3899  164.4454 C.ar    1  UNL1        0.1390
      5 C         140.7784  138.5571  164.6382 C.ar    1  UNL1        0.0366
      6 C         141.3046  139.1851  165.8947 C.ar    1  UNL1        0.0002
      7 C         140.7591  142.1405  170.0181 C.3     1  UNL1        0.1423
      8 C         141.9313  141.5301  170.7277 C.3     1  UNL1        0.0826
      9 S         142.5772  140.2917  170.1808 S.3     1  UNL1       -0.1366
     10 C         142.0510  139.6636  168.9244 C.3     1  UNL1        0.0778
     11 C         140.8789  140.2740  168.2148 C.3     1  UNL1        0.0881
     12 N         140.2329  141.5124  168.7617 N.3     1  UNL1       -0.2875
     13 H         139.2545  141.2822  168.9351 H       1  UNL1        0.1239
     14 N         138.8812  143.2699  171.4137 N.am    1  UNL1       -0.3277
     15 C         140.1132  143.3789  170.5650 C.2     1  UNL1        0.2345
     16 O         140.6992  144.7262  170.2632 O.2     1  UNL1       -0.2739
     17 H         138.4572  144.0827  171.7727 H       1  UNL1        0.1450
     18 H         138.4965  142.3856  171.6118 H       1  UNL1        0.1450
     19 O         138.7740  137.7619  163.1889 O.3     1  UNL1       -0.4706
     20 C         137.9514  138.5734  162.2325 C.3     1  UNL1        0.2321
     21 C         138.3435  139.9868  161.9183 C.ar    1  UNL1        0.0234
     22 C         139.4666  140.2587  160.9620 C.ar    1  UNL1       -0.0005
     23 C         139.8586  141.6720  160.6478 C.ar    1  UNL1        0.0021
     24 C         139.1274  142.8135  161.2899 C.ar    1  UNL1        0.0296
     25 C         138.0042  142.5417  162.2462 C.ar    1  UNL1        0.1399
     26 F         137.2730  143.6832  162.8883 F       1  UNL1       -0.2042
     27 C         137.6122  141.1283  162.5604 C.ar    1  UNL1        0.0289
@<TRIPOS>BOND
     1    14    15   am
     2    15    16    2
     3     7    15    1
     4     7     8    1
     5     8     9    1
     6     9    10    1
     7    10    11    1
     8    11     1    1
     9     1     2   ar
    10     2     3   ar
    11     3     4   ar
    12     4    19    1
    13    19    20    1
    14    20    21    1
    15    21    22   ar
    16    22    23   ar
    17    23    24   ar
    18    24    25   ar
    19    25    26    1
    20    25    27   ar
    21     4     5   ar
    22     5     6   ar
    23    11    12    1
    24    12     7    1
    25     6     1   ar
    26    27    21   ar
    27    14    17    1
    28    14    18    1
    29    12    13    1
@<TRIPOS>MOLECULE
*****
 27 29 0 0 0
SMALL
GASTEIGER

@<TRIPOS>ATOM
      1 C         140.3416  139.7298  166.9200 C.ar    1  UNL1       -0.0069
      2 C         138.9384  139.2041  166.8528 C.ar    1  UNL1        0.0002
      3 C         138.4238  138.6004  165.5797 C.ar    1  UNL1        0.0366
      4 C         139.3126  138.5224  164.3738 C.ar    1  UNL1        0.1390
      5 C         140.7158  139.0482  164.4411 C.ar    1  UNL1        0.0366
      6 C         141.2303  139.6519  165.7142 C.ar    1  UNL1        0.0002
      7 C         140.7301  142.1745  170.0221 C.3     1  UNL1        0.1423
      8 C         141.8852  141.5410  170.7393 C.3     1  UNL1        0.0826
      9 S         142.5258  140.3038  170.1834 S.3     1  UNL1       -0.1366
     10 C         142.0113  139.7001  168.9104 C.3     1  UNL1        0.0778
     11 C         140.8562  140.3336  168.1932 C.3     1  UNL1        0.0881
     12 N         140.2156  141.5708  168.7490 N.3     1  UNL1       -0.2875
     13 H         139.2323  141.3486  168.9048 H       1  UNL1        0.1239
     14 N         138.8788  143.2995  171.4564 N.am    1  UNL1       -0.3277
     15 C         140.0895  143.4117  170.5780 C.2     1  UNL1        0.2345
     16 O         140.6596  144.7611  170.2555 O.2     1  UNL1       -0.2739
     17 H         138.4584  144.1115  171.8212 H       1  UNL1        0.1450
     18 H         138.5046  142.4138  171.6680 H       1  UNL1        0.1450
     19 O         138.7981  137.9188  163.1007 O.3     1  UNL1       -0.4706
     20 C         137.9448  138.7344  162.1752 C.3     1  UNL1        0.2321
     21 C         138.0972  140.2261  162.1337 C.ar    1  UNL1        0.0234
     22 C         137.4181  141.0783  163.1645 C.ar    1  UNL1       -0.0005
     23 C         137.5705  142.5699  163.1231 C.ar    1  UNL1        0.0021
     24 C         138.4020  143.2094  162.0508 C.ar    1  UNL1        0.0296
     25 C         139.0811  142.3572  161.0200 C.ar    1  UNL1        0.1399
     26 F         139.9126  142.9967  159.9478 F       1  UNL1       -0.2042
     27 C         138.9287  140.8656  161.0615 C.ar    1  UNL1        0.0289
@<TRIPOS>BOND
     1    14    15   am
     2    15    16    2
     3     7    15    1
     4     7     8    1
     5     8     9    1
     6     9    10    1
     7    10    11    1
     8    11     1    1
     9     1     2   ar
    10     2     3   ar
    11     3     4   ar
    12     4    19    1
    13    19    20    1
    14    20    21    1
    15    21    22   ar
    16    22    23   ar
    17    23    24   ar
    18    24    25   ar
    19    25    26    1
    20    25    27   ar
    21     4     5   ar
    22     5     6   ar
    23    11    12    1
    24    12     7    1
    25     6     1   ar
    26    27    21   ar
    27    14    17    1
    28    14    18    1
    29    12    13    1
@<TRIPOS>MOLECULE
*****
 27 29 0 0 0
SMALL
GASTEIGER

@<TRIPOS>ATOM
      1 C         139.8617  141.0923  166.9211 C.ar    1  UNL1       -0.0069
      2 C         139.8888  142.1148  165.8240 C.ar    1  UNL1        0.0002
      3 C         139.0757  141.9033  164.5813 C.ar    1  UNL1        0.0366
      4 C         138.2355  140.6692  164.4358 C.ar    1  UNL1        0.1390
      5 C         138.2084  139.6467  165.5330 C.ar    1  UNL1        0.0366
      6 C         139.0215  139.8582  166.7756 C.ar    1  UNL1        0.0002
      7 C         142.3153  140.3938  169.9612 C.3     1  UNL1        0.1423
      8 C         142.3010  141.7267  170.6490 C.3     1  UNL1        0.0826
      9 S         141.4735  142.8481  170.0943 S.3     1  UNL1       -0.1366
     10 C         140.6605  142.6366  168.8516 C.3     1  UNL1        0.0778
     11 C         140.6748  141.3038  168.1638 C.3     1  UNL1        0.0881
     12 N         141.5023  140.1823  168.7185 N.3     1  UNL1       -0.2875
     13 H         142.1536  139.9057  167.9840 H       1  UNL1        0.1239
     14 N         144.1024  139.5328  171.6389 N.am    1  UNL1       -0.3277
     15 C         143.1428  139.2724  170.5159 C.2     1  UNL1        0.2345
     16 O         143.0105  137.8905  169.9477 O.2     1  UNL1       -0.2739
     17 H         144.6455  138.7968  172.0030 H       1  UNL1        0.1450
     18 H         144.1892  140.4398  172.0119 H       1  UNL1        0.1450
     19 O         137.4224  140.4577  163.1932 O.3     1  UNL1       -0.4706
     20 C         137.9581  139.6031  162.0829 C.3     1  UNL1        0.2321
     21 C         139.3517  139.0543  162.1644 C.ar    1  UNL1        0.0234
     22 C         139.6045  137.7493  162.8593 C.ar    1  UNL1       -0.0005
     23 C         140.9981  137.2006  162.9407 C.ar    1  UNL1        0.0021
     24 C         142.1390  137.9569  162.3272 C.ar    1  UNL1        0.0296
     25 C         141.8863  139.2619  161.6323 C.ar    1  UNL1        0.1399
     26 F         143.0271  140.0182  161.0188 F       1  UNL1       -0.2042
     27 C         140.4926  139.8106  161.5509 C.ar    1  UNL1        0.0289
@<TRIPOS>BOND
     1    14    15   am
     2    15    16    2
     3     7    15    1
     4     7     8    1
     5     8     9    1
     6     9    10    1
     7    10    11    1
     8    11     1    1
     9     1     2   ar
    10     2     3   ar
    11     3     4   ar
    12     4    19    1
    13    19    20    1
    14    20    21    1
    15    21    22   ar
    16    22    23   ar
    17    23    24   ar
    18    24    25   ar
    19    25    26    1
    20    25    27   ar
    21     4     5   ar
    22     5     6   ar
    23    11    12    1
    24    12     7    1
    25     6     1   ar
    26    27    21   ar
    27    14    17    1
    28    14    18    1
    29    12    13    1
@<TRIPOS>MOLECULE
*****
 27 29 0 0 0
SMALL
GASTEIGER

@<TRIPOS>ATOM
      1 C         140.7934  141.1136  164.5698 C.ar    1  UNL1       -0.0069
      2 C         140.2957  139.8134  165.1281 C.ar    1  UNL1        0.0002
      3 C         141.0536  139.1302  166.2277 C.ar    1  UNL1        0.0366
      4 C         142.3091  139.7474  166.7689 C.ar    1  UNL1        0.1390
      5 C         142.8067  141.0477  166.2105 C.ar    1  UNL1        0.0366
      6 C         142.0488  141.7307  165.1110 C.ar    1  UNL1        0.0002
      7 C         139.6267  143.8855  161.9802 C.3     1  UNL1        0.1423
      8 C         138.5199  143.1630  161.2711 C.3     1  UNL1        0.0826
      9 S         138.1709  141.7573  161.6614 S.3     1  UNL1       -0.1366
     10 C         138.9287  141.0742  162.7610 C.3     1  UNL1        0.0778
     11 C         140.0355  141.7967  163.4701 C.3     1  UNL1        0.0881
     12 N         140.3845  143.2023  163.0798 N.3     1  UNL1       -0.2875
     13 H         141.3657  143.1955  162.8010 H       1  UNL1        0.1239
     14 N         140.5724  146.2242  162.6014 N.am    1  UNL1       -0.3277
     15 C         139.9757  145.2911  161.5899 C.2     1  UNL1        0.2345
     16 O         139.7281  145.7636  160.1880 O.2     1  UNL1       -0.2739
     17 H         140.8014  147.1468  162.3452 H       1  UNL1        0.1450
     18 H         140.7349  145.9141  163.5215 H       1  UNL1        0.1450
     19 O         143.0669  139.0643  167.8685 O.3     1  UNL1       -0.4706
     20 C         142.7962  139.4213  169.2999 C.3     1  UNL1        0.2321
     21 C         141.7528  140.4464  169.6328 C.ar    1  UNL1        0.0234
     22 C         140.3255  140.0280  169.8273 C.ar    1  UNL1       -0.0005
     23 C         139.2822  141.0530  170.1601 C.ar    1  UNL1        0.0021
     24 C         139.6662  142.4964  170.2986 C.ar    1  UNL1        0.0296
     25 C         141.0934  142.9148  170.1042 C.ar    1  UNL1        0.1399
     26 F         141.4774  144.3582  170.2427 F       1  UNL1       -0.2042
     27 C         142.1367  141.8898  169.7713 C.ar    1  UNL1        0.0289
@<TRIPOS>BOND
     1    14    15   am
     2    15    16    2
     3     7    15    1
     4     7     8    1
     5     8     9    1
     6     9    10    1
     7    10    11    1
     8    11     1    1
     9     1     2   ar
    10     2     3   ar
    11     3     4   ar
    12     4    19    1
    13    19    20    1
    14    20    21    1
    15    21    22   ar
    16    22    23   ar
    17    23    24   ar
    18    24    25   ar
    19    25    26    1
    20    25    27   ar
    21     4     5   ar
    22     5     6   ar
    23    11    12    1
    24    12     7    1
    25     6     1   ar
    26    27    21   ar
    27    14    17    1
    28    14    18    1
    29    12    13    1
@<TRIPOS>MOLECULE
*****
 27 29 0 0 0
SMALL
GASTEIGER

@<TRIPOS>ATOM
      1 C         140.4336  143.1511  165.8610 C.ar    1  UNL1       -0.0069
      2 C         141.7096  143.2647  165.0806 C.ar    1  UNL1        0.0002
      3 C         141.7797  144.1680  163.8851 C.ar    1  UNL1        0.0366
      4 C         140.5738  144.9576  163.4700 C.ar    1  UNL1        0.1390
      5 C         139.2978  144.8440  164.2504 C.ar    1  UNL1        0.0366
      6 C         139.2277  143.9407  165.4459 C.ar    1  UNL1        0.0002
      7 C         140.8116  141.8151  169.5788 C.3     1  UNL1        0.1423
      8 C         140.2234  140.4415  169.4476 C.3     1  UNL1        0.0826
      9 S         139.7053  139.9711  168.1208 S.3     1  UNL1       -0.1366
     10 C         139.7753  140.8743  166.9253 C.3     1  UNL1        0.0778
     11 C         140.3635  142.2479  167.0566 C.3     1  UNL1        0.0881
     12 N         140.8816  142.7183  168.3833 N.3     1  UNL1       -0.2875
     13 H         140.3600  143.5620  168.6207 H       1  UNL1        0.1239
     14 N         142.7036  142.8788  171.0066 N.am    1  UNL1       -0.3277
     15 C         141.3297  142.2855  170.9056 C.2     1  UNL1        0.2345
     16 O         140.4739  142.1626  172.1313 O.2     1  UNL1       -0.2739
     17 H         143.0437  143.1875  171.8774 H       1  UNL1        0.1450
     18 H         143.2654  142.9594  170.2022 H       1  UNL1        0.1450
     19 O         140.6438  145.8608  162.2745 O.3     1  UNL1       -0.4706
     20 C         140.3581  145.3172  160.9060 C.3     1  UNL1        0.2321
     21 C         140.2757  143.8350  160.6899 C.ar    1  UNL1        0.0234
     22 C         138.9692  143.1217  160.8745 C.ar    1  UNL1       -0.0005
     23 C         138.8868  141.6397  160.6585 C.ar    1  UNL1        0.0021
     24 C         140.1110  140.8710  160.2578 C.ar    1  UNL1        0.0296
     25 C         141.4175  141.5843  160.0732 C.ar    1  UNL1        0.1399
     26 F         142.6417  140.8156  159.6725 F       1  UNL1       -0.2042
     27 C         141.4999  143.0663  160.2893 C.ar    1  UNL1        0.0289
@<TRIPOS>BOND
     1    14    15   am
     2    15    16    2
     3     7    15    1
     4     7     8    1
     5     8     9    1
     6     9    10    1
     7    10    11    1
     8    11     1    1
     9     1     2   ar
    10     2     3   ar
    11     3     4   ar
    12     4    19    1
    13    19    20    1
    14    20    21    1
    15    21    22   ar
    16    22    23   ar
    17    23    24   ar
    18    24    25   ar
    19    25    26    1
    20    25    27   ar
    21     4     5   ar
    22     5     6   ar
    23    11    12    1
    24    12     7    1
    25     6     1   ar
    26    27    21   ar
    27    14    17    1
    28    14    18    1
    29    12    13    1
@<TRIPOS>MOLECULE
*****
 27 29 0 0 0
SMALL
GASTEIGER

@<TRIPOS>ATOM
      1 C         142.7887  140.3906  166.1435 C.ar    1  UNL1       -0.0069
      2 C         142.4436  141.5430  165.2476 C.ar    1  UNL1        0.0002
      3 C         142.6150  141.4162  163.7628 C.ar    1  UNL1        0.0366
      4 C         143.1314  140.1369  163.1740 C.ar    1  UNL1        0.1390
      5 C         143.4765  138.9844  164.0700 C.ar    1  UNL1        0.0366
      6 C         143.3051  139.1113  165.5547 C.ar    1  UNL1        0.0002
      7 C         142.3491  142.0018  169.7436 C.3     1  UNL1        0.1423
      8 C         142.2746  140.7711  170.5978 C.3     1  UNL1        0.0826
      9 S         142.3714  139.4135  169.9673 S.3     1  UNL1       -0.1366
     10 C         142.5428  139.2866  168.4826 C.3     1  UNL1        0.0778
     11 C         142.6173  140.5174  167.6284 C.3     1  UNL1        0.0881
     12 N         142.5205  141.8750  168.2589 N.3     1  UNL1       -0.2875
     13 H         141.7224  142.3429  167.8294 H       1  UNL1        0.1239
     14 N         143.4066  143.9046  171.1619 N.am    1  UNL1       -0.3277
     15 C         142.2523  143.3594  170.3742 C.2     1  UNL1        0.2345
     16 O         141.0013  144.1718  170.2171 O.2     1  UNL1       -0.2739
     17 H         143.3430  144.7956  171.5757 H       1  UNL1        0.1450
     18 H         144.2277  143.3713  171.2650 H       1  UNL1        0.1450
     19 O         143.3028  140.0100  161.6892 O.3     1  UNL1       -0.4706
     20 C         142.2676  139.2942  160.8733 C.3     1  UNL1        0.2321
     21 C         140.8534  139.2066  161.3656 C.ar    1  UNL1        0.0234
     22 C         140.3658  137.9516  162.0269 C.ar    1  UNL1       -0.0005
     23 C         138.9517  137.8640  162.5192 C.ar    1  UNL1        0.0021
     24 C         138.0250  139.0314  162.3502 C.ar    1  UNL1        0.0296
     25 C         138.5125  140.2864  161.6889 C.ar    1  UNL1        0.1399
     26 F         137.5859  141.4538  161.5200 F       1  UNL1       -0.2042
     27 C         139.9267  140.3740  161.1966 C.ar    1  UNL1        0.0289
@<TRIPOS>BOND
     1    14    15   am
     2    15    16    2
     3     7    15    1
     4     7     8    1
     5     8     9    1
     6     9    10    1
     7    10    11    1
     8    11     1    1
     9     1     2   ar
    10     2     3   ar
    11     3     4   ar
    12     4    19    1
    13    19    20    1
    14    20    21    1
    15    21    22   ar
    16    22    23   ar
    17    23    24   ar
    18    24    25   ar
    19    25    26    1
    20    25    27   ar
    21     4     5   ar
    22     5     6   ar
    23    11    12    1
    24    12     7    1
    25     6     1   ar
    26    27    21   ar
    27    14    17    1
    28    14    18    1
    29    12    13    1
@<TRIPOS>MOLECULE
*****
 27 29 0 0 0
SMALL
GASTEIGER

@<TRIPOS>ATOM
      1 C         139.6499  143.1232  162.1651 C.ar    1  UNL1       -0.0069
      2 C         138.4227  142.8159  162.9710 C.ar    1  UNL1        0.0002
      3 C         138.5283  142.6253  164.4551 C.ar    1  UNL1        0.0366
      4 C         139.8612  142.7420  165.1333 C.ar    1  UNL1        0.1390
      5 C         141.0884  143.0493  164.3273 C.ar    1  UNL1        0.0366
      6 C         140.9828  143.2399  162.8432 C.ar    1  UNL1        0.0002
      7 C         140.1736  144.6300  158.5311 C.3     1  UNL1        0.1423
      8 C         139.3332  143.6952  157.7128 C.3     1  UNL1        0.0826
      9 S         138.5983  142.5697  158.3786 S.3     1  UNL1       -0.1366
     10 C         138.7038  142.3791  159.8626 C.3     1  UNL1        0.0778
     11 C         139.5443  143.3139  160.6809 C.3     1  UNL1        0.0881
     12 N         140.2792  144.4394  160.0152 N.3     1  UNL1       -0.2875
     13 H         141.2688  144.3102  160.2258 H       1  UNL1        0.1239
     14 N         140.1663  146.7232  156.9921 N.am    1  UNL1       -0.3277
     15 C         140.9085  145.7555  157.8654 C.2     1  UNL1        0.2345
     16 O         142.3857  145.9133  158.0730 O.2     1  UNL1       -0.2739
     17 H         140.6487  147.4618  156.5552 H       1  UNL1        0.1450
     18 H         139.1968  146.6196  156.8559 H       1  UNL1        0.1450
     19 O         139.9668  142.5514  166.6173 O.3     1  UNL1       -0.4706
     20 C         140.3747  141.2201  167.1753 C.3     1  UNL1        0.2321
     21 C         139.7597  139.9616  166.6386 C.ar    1  UNL1        0.0234
     22 C         140.3936  139.2525  165.4787 C.ar    1  UNL1       -0.0005
     23 C         139.7785  137.9941  164.9421 C.ar    1  UNL1        0.0021
     24 C         138.5296  137.4448  165.5654 C.ar    1  UNL1        0.0296
     25 C         137.8957  138.1539  166.7252 C.ar    1  UNL1        0.1399
     26 F         136.6468  137.6045  167.3485 F       1  UNL1       -0.2042
     27 C         138.5108  139.4123  167.2618 C.ar    1  UNL1        0.0289
@<TRIPOS>BOND
     1    14    15   am
     2    15    16    2
     3     7    15    1
     4     7     8    1
     5     8     9    1
     6     9    10    1
     7    10    11    1
     8    11     1    1
     9     1     2   ar
    10     2     3   ar
    11     3     4   ar
    12     4    19    1
    13    19    20    1
    14    20    21    1
    15    21    22   ar
    16    22    23   ar
    17    23    24   ar
    18    24    25   ar
    19    25    26    1
    20    25    27   ar
    21     4     5   ar
    22     5     6   ar
    23    11    12    1
    24    12     7    1
    25     6     1   ar
    26    27    21   ar
    27    14    17    1
    28    14    18    1
    29    12    13    1
@<TRIPOS>MOLECULE
*****
 27 29 0 0 0
SMALL
GASTEIGER

@<TRIPOS>ATOM
      1 C         140.0087  141.0416  166.9786 C.ar    1  UNL1       -0.0069
      2 C         140.4797  142.0066  165.9313 C.ar    1  UNL1        0.0002
      3 C         139.9168  141.9399  164.5425 C.ar    1  UNL1        0.0366
      4 C         138.8830  140.9081  164.2011 C.ar    1  UNL1        0.1390
      5 C         138.4120  139.9430  165.2485 C.ar    1  UNL1        0.0366
      6 C         138.9749  140.0098  166.6372 C.ar    1  UNL1        0.0002
      7 C         142.2971  142.0758  170.0518 C.3     1  UNL1        0.1423
      8 C         141.6974  141.2420  171.1450 C.3     1  UNL1        0.0826
      9 S         140.5348  140.3414  170.8494 S.3     1  UNL1       -0.1366
     10 C         139.9719  140.2746  169.4607 C.3     1  UNL1        0.0778
     11 C         140.5716  141.1084  168.3675 C.3     1  UNL1        0.0881
     12 N         141.7342  142.0090  168.6630 N.3     1  UNL1       -0.2875
     13 H         141.4435  142.9553  168.4173 H       1  UNL1        0.1239
     14 N         143.3144  144.0849  171.3473 N.am    1  UNL1       -0.3277
     15 C         143.4597  142.9763  170.3473 C.2     1  UNL1        0.2345
     16 O         144.7675  142.7684  169.6429 O.2     1  UNL1       -0.2739
     17 H         144.0775  144.6760  171.5413 H       1  UNL1        0.1450
     18 H         142.4560  144.2214  171.8096 H       1  UNL1        0.1450
     19 O         138.3201  140.8413  162.8123 O.3     1  UNL1       -0.4706
     20 C         137.7086  142.0622  162.1914 C.3     1  UNL1        0.2321
     21 C         138.5787  143.0625  161.4897 C.ar    1  UNL1        0.0234
     22 C         139.0764  142.7815  160.1029 C.ar    1  UNL1       -0.0005
     23 C         139.9464  143.7818  159.4012 C.ar    1  UNL1        0.0021
     24 C         140.3188  145.0632  160.0864 C.ar    1  UNL1        0.0296
     25 C         139.8211  145.3442  161.4732 C.ar    1  UNL1        0.1399
     26 F         140.1934  146.6256  162.1584 F       1  UNL1       -0.2042
     27 C         138.9511  144.3439  162.1748 C.ar    1  UNL1        0.0289
@<TRIPOS>BOND
     1    14    15   am
     2    15    16    2
     3     7    15    1
     4     7     8    1
     5     8     9    1
     6     9    10    1
     7    10    11    1
     8    11     1    1
     9     1     2   ar
    10     2     3   ar
    11     3     4   ar
    12     4    19    1
    13    19    20    1
    14    20    21    1
    15    21    22   ar
    16    22    23   ar
    17    23    24   ar
    18    24    25   ar
    19    25    26    1
    20    25    27   ar
    21     4     5   ar
    22     5     6   ar
    23    11    12    1
    24    12     7    1
    25     6     1   ar
    26    27    21   ar
    27    14    17    1
    28    14    18    1
    29    12    13    1
@<TRIPOS>MOLECULE
*****
 27 29 0 0 0
SMALL
GASTEIGER

@<TRIPOS>ATOM
      1 C         139.7806  139.0258  164.8562 C.ar    1  UNL1       -0.0069
      2 C         140.5780  139.9190  165.7598 C.ar    1  UNL1        0.0002
      3 C         140.1241  140.1578  167.1694 C.ar    1  UNL1        0.0366
      4 C         138.8728  139.5033  167.6755 C.ar    1  UNL1        0.1390
      5 C         138.0754  138.6101  166.7719 C.ar    1  UNL1        0.0366
      6 C         138.5293  138.3714  165.3623 C.ar    1  UNL1        0.0002
      7 C         139.7948  138.9149  160.8892 C.3     1  UNL1        0.1423
      8 C         141.1420  138.3096  160.6274 C.3     1  UNL1        0.0826
      9 S         142.0355  137.9430  161.7752 S.3     1  UNL1       -0.1366
     10 C         141.5817  138.1818  163.1848 C.3     1  UNL1        0.0778
     11 C         140.2344  138.7871  163.4466 C.3     1  UNL1        0.0881
     12 N         139.3410  139.1536  162.2988 N.3     1  UNL1       -0.2875
     13 H         139.1501  140.1521  162.3815 H       1  UNL1        0.1239
     14 N         137.7038  140.1545  159.9722 N.am    1  UNL1       -0.3277
     15 C         138.9014  139.2814  159.7414 C.2     1  UNL1        0.2345
     16 O         139.2056  138.7748  158.3627 O.2     1  UNL1       -0.2739
     17 H         137.1174  140.3951  159.2189 H       1  UNL1        0.1450
     18 H         137.5041  140.4870  160.8771 H       1  UNL1        0.1450
     19 O         138.4190  139.7421  169.0850 O.3     1  UNL1       -0.4706
     20 C         139.4287  139.8658  170.1873 C.3     1  UNL1        0.2321
     21 C         140.4048  141.0049  170.1859 C.ar    1  UNL1        0.0234
     22 C         141.8784  140.7299  170.2382 C.ar    1  UNL1       -0.0005
     23 C         142.8543  141.8690  170.2369 C.ar    1  UNL1        0.0021
     24 C         142.3566  143.2830  170.1833 C.ar    1  UNL1        0.0296
     25 C         140.8830  143.5580  170.1310 C.ar    1  UNL1        0.1399
     26 F         140.3853  144.9720  170.0774 F       1  UNL1       -0.2042
     27 C         139.9071  142.4189  170.1323 C.ar    1  UNL1        0.0289
@<TRIPOS>BOND
     1    14    15   am
     2    15    16    2
     3     7    15    1
     4     7     8    1
     5     8     9    1
     6     9    10    1
     7    10    11    1
     8    11     1    1
     9     1     2   ar
    10     2     3   ar
    11     3     4   ar
    12     4    19    1
    13    19    20    1
    14    20    21    1
    15    21    22   ar
    16    22    23   ar
    17    23    24   ar
    18    24    25   ar
    19    25    26    1
    20    25    27   ar
    21     4     5   ar
    22     5     6   ar
    23    11    12    1
    24    12     7    1
    25     6     1   ar
    26    27    21   ar
    27    14    17    1
    28    14    18    1
    29    12    13    1
