@<TRIPOS>MOLECULE
*****
 36 39 0 0 0
SMALL
GASTEIGER

@<TRIPOS>ATOM
      1 C         139.3578  140.7539  159.6770 C.ar    1  UNL1        0.1493
      2 N         139.9236  139.4617  159.1671 N.ar    1  UNL1       -0.2378
      3 C         140.4991  139.3890  157.7838 C.ar    1  UNL1        0.1006
      4 C         140.5090  140.6085  156.9106 C.ar    1  UNL1        0.1193
      5 N         139.9432  141.9007  157.4205 N.ar    1  UNL1       -0.2264
      6 C         139.3676  141.9735  158.8037 C.ar    1  UNL1        0.1463
      7 N         138.8019  143.2657  159.3137 N.pl3   1  UNL1       -0.3413
      8 H         138.8084  144.0661  158.7405 H       1  UNL1        0.1438
      9 H         138.4241  143.3134  160.2216 H       1  UNL1        0.1438
     10 C         141.0649  138.0967  157.2738 C.ar    1  UNL1        0.0193
     11 C         140.3336  137.3230  156.2173 C.ar    1  UNL1        0.0029
     12 C         140.8995  136.0307  155.7074 C.ar    1  UNL1        0.0184
     13 C         142.1964  135.5122  156.2540 C.ar    1  UNL1        0.1056
     14 C         142.9277  136.2861  157.3107 C.ar    1  UNL1        0.0184
     15 C         142.3620  137.5783  157.8206 C.ar    1  UNL1        0.0029
     16 S         142.7622  134.2200  155.7441 S.O2    1  UNL1        0.0070
     17 O         141.5952  134.0766  154.8127 O.2     1  UNL1       -0.1687
     18 O         143.9292  134.3634  156.6756 O.2     1  UNL1       -0.1687
     19 C         143.3280  132.9278  155.2342 C.3     1  UNL1        0.1339
     20 C         144.4507  132.2584  155.9701 C.3     1  UNL1        0.0257
     21 C         142.7711  132.3049  153.9885 C.3     1  UNL1        0.0257
     22 C         138.5682  140.7702  163.4773 C.ar    1  UNL1        0.1231
     23 C         139.5307  140.5971  162.3398 C.ar    1  UNL1        0.0642
     24 C         138.7822  140.8266  161.0603 C.ar    1  UNL1        0.1971
     25 O         137.3572  141.1414  161.4069 O.2     1  UNL1       -0.3517
     26 N         137.2250  141.1066  162.9007 N.ar    1  UNL1       -0.0769
     27 C         139.5400  140.3533  167.8513 C.ar    1  UNL1       -0.0064
     28 C         140.1704  141.4492  167.0441 C.ar    1  UNL1       -0.0029
     29 C         139.8464  141.5881  165.5861 C.ar    1  UNL1        0.0013
     30 C         138.8922  140.6312  164.9353 C.ar    1  UNL1        0.0209
     31 C         138.2618  139.5353  165.7425 C.ar    1  UNL1        0.0013
     32 C         138.5857  139.3963  167.2005 C.ar    1  UNL1       -0.0029
     33 C         139.8640  140.2143  169.3093 C.3     1  UNL1        0.0957
     34 C         139.8021  142.4674  170.6014 C.3     1  UNL1        0.0861
     35 N         139.2116  141.1192  170.3120 N.3     1  UNL1       -0.2926
     36 H         138.2578  141.2789  169.9879 H       1  UNL1        0.1236
@<TRIPOS>BOND
     1    34    35    1
     2    35    33    1
     3    33    27    1
     4    27    28   ar
     5    28    29   ar
     6    29    30   ar
     7    30    22    1
     8    22    23   ar
     9    23    24   ar
    10    24     1    1
    11     1     2   ar
    12     2     3   ar
    13     3    10    1
    14    10    11   ar
    15    11    12   ar
    16    12    13   ar
    17    13    16    1
    18    16    17    2
    19    16    18    2
    20    16    19    1
    21    19    20    1
    22    19    21    1
    23    13    14   ar
    24    14    15   ar
    25     3     4   ar
    26     4     5   ar
    27     5     6   ar
    28     6     7    1
    29    24    25   ar
    30    25    26   ar
    31    30    31   ar
    32    31    32   ar
    33    32    27   ar
    34    26    22   ar
    35     6     1   ar
    36    15    10   ar
    37    35    36    1
    38     7     8    1
    39     7     9    1
@<TRIPOS>MOLECULE
*****
 36 39 0 0 0
SMALL
GASTEIGER

@<TRIPOS>ATOM
      1 C         140.1231  138.6214  157.5035 C.ar    1  UNL1        0.1493
      2 N         140.7088  137.2418  157.4430 N.ar    1  UNL1       -0.2378
      3 C         141.4979  136.8142  156.2411 C.ar    1  UNL1        0.1006
      4 C         141.7013  137.7660  155.1000 C.ar    1  UNL1        0.1193
      5 N         141.1156  139.1456  155.1605 N.ar    1  UNL1       -0.2264
      6 C         140.3265  139.5733  156.3623 C.ar    1  UNL1        0.1463
      7 N         139.7408  140.9529  156.4228 N.pl3   1  UNL1       -0.3413
      8 H         139.8743  141.5777  155.6738 H       1  UNL1        0.1438
      9 H         139.2229  141.2336  157.2116 H       1  UNL1        0.1438
     10 C         142.0836  135.4344  156.1806 C.ar    1  UNL1        0.0193
     11 C         141.4609  134.3934  155.2985 C.ar    1  UNL1        0.0029
     12 C         142.0467  133.0137  155.2381 C.ar    1  UNL1        0.0184
     13 C         143.2551  132.6753  156.0597 C.ar    1  UNL1        0.1056
     14 C         143.8778  133.7165  156.9418 C.ar    1  UNL1        0.0184
     15 C         143.2921  135.0961  157.0023 C.ar    1  UNL1        0.0029
     16 S         143.8408  131.2957  155.9992 S.O2    1  UNL1        0.0070
     17 O         142.4599  130.7108  155.9676 O.2     1  UNL1       -0.1687
     18 O         145.2217  131.8806  156.0308 O.2     1  UNL1       -0.1687
     19 C         144.4265  129.9162  155.9387 C.3     1  UNL1        0.1339
     20 C         144.5788  129.1103  157.1947 C.3     1  UNL1        0.0257
     21 C         144.8599  129.3424  154.6223 C.3     1  UNL1        0.0257
     22 C         138.6040  139.3478  161.0007 C.ar    1  UNL1        0.1231
     23 C         139.6539  138.7192  160.1332 C.ar    1  UNL1        0.0642
     24 C         139.3339  139.0490  158.7053 C.ar    1  UNL1        0.1971
     25 O         138.0863  139.8816  158.6903 O.2     1  UNL1       -0.3517
     26 N         137.6352  140.0662  160.1089 N.ar    1  UNL1       -0.0769
     27 C         138.3972  139.1189  165.4901 C.ar    1  UNL1       -0.0064
     28 C         138.8502  137.9281  164.6985 C.ar    1  UNL1       -0.0029
     29 C         138.9191  138.0044  163.2020 C.ar    1  UNL1        0.0013
     30 C         138.5351  139.2715  162.4972 C.ar    1  UNL1        0.0209
     31 C         138.0822  140.4623  163.2888 C.ar    1  UNL1        0.0013
     32 C         138.0132  140.3860  164.7853 C.ar    1  UNL1       -0.0029
     33 C         138.3283  139.0426  166.9866 C.3     1  UNL1        0.0957
     34 C         140.7192  140.0081  167.3048 C.3     1  UNL1        0.0861
     35 N         139.3293  139.7840  167.8223 N.3     1  UNL1       -0.2926
     36 H         138.9325  140.7049  168.0090 H       1  UNL1        0.1236
@<TRIPOS>BOND
     1    34    35    1
     2    35    33    1
     3    33    27    1
     4    27    28   ar
     5    28    29   ar
     6    29    30   ar
     7    30    22    1
     8    22    23   ar
     9    23    24   ar
    10    24     1    1
    11     1     2   ar
    12     2     3   ar
    13     3    10    1
    14    10    11   ar
    15    11    12   ar
    16    12    13   ar
    17    13    16    1
    18    16    17    2
    19    16    18    2
    20    16    19    1
    21    19    20    1
    22    19    21    1
    23    13    14   ar
    24    14    15   ar
    25     3     4   ar
    26     4     5   ar
    27     5     6   ar
    28     6     7    1
    29    24    25   ar
    30    25    26   ar
    31    30    31   ar
    32    31    32   ar
    33    32    27   ar
    34    26    22   ar
    35     6     1   ar
    36    15    10   ar
    37    35    36    1
    38     7     8    1
    39     7     9    1
@<TRIPOS>MOLECULE
*****
 36 39 0 0 0
SMALL
GASTEIGER

@<TRIPOS>ATOM
      1 C         141.1625  142.8833  161.0933 C.ar    1  UNL1        0.1493
      2 N         141.2794  141.5442  160.4277 N.ar    1  UNL1       -0.2378
      3 C         141.9135  141.4328  159.0729 C.ar    1  UNL1        0.1006
      4 C         142.4307  142.6606  158.3837 C.ar    1  UNL1        0.1193
      5 N         142.3138  143.9997  159.0493 N.ar    1  UNL1       -0.2264
      6 C         141.6797  144.1111  160.4040 C.ar    1  UNL1        0.1463
      7 N         141.5628  145.4503  161.0696 N.pl3   1  UNL1       -0.3413
      8 H         141.9023  146.2561  160.6172 H       1  UNL1        0.1438
      9 H         141.1466  145.5234  161.9588 H       1  UNL1        0.1438
     10 C         142.0304  140.0935  158.4073 C.ar    1  UNL1        0.0193
     11 C         142.6136  138.9322  159.1563 C.ar    1  UNL1        0.0029
     12 C         142.7304  137.5930  158.4907 C.ar    1  UNL1        0.0184
     13 C         142.2641  137.4153  157.0762 C.ar    1  UNL1        0.1056
     14 C         141.6809  138.5767  156.3272 C.ar    1  UNL1        0.0184
     15 C         141.5640  139.9159  156.9928 C.ar    1  UNL1        0.0029
     16 S         142.3810  136.0761  156.4106 S.O2    1  UNL1        0.0070
     17 O         143.8074  135.9755  156.8636 O.2     1  UNL1       -0.1687
     18 O         140.9546  136.1768  155.9577 O.2     1  UNL1       -0.1687
     19 C         142.4978  134.7370  155.7451 C.3     1  UNL1        0.1339
     20 C         141.3507  134.1942  154.9454 C.3     1  UNL1        0.0257
     21 C         143.7619  133.9406  155.8791 C.3     1  UNL1        0.0257
     22 C         139.9637  142.5865  164.7730 C.ar    1  UNL1        0.1231
     23 C         140.8209  142.1225  163.6328 C.ar    1  UNL1        0.0642
     24 C         140.5283  142.9947  162.4480 C.ar    1  UNL1        0.1971
     25 O         139.4903  143.9977  162.8559 O.2     1  UNL1       -0.3517
     26 N         139.1414  143.7454  164.2928 N.ar    1  UNL1       -0.0769
     27 C         139.8748  140.8130  168.9078 C.ar    1  UNL1       -0.0064
     28 C         140.3549  142.2195  168.7052 C.ar    1  UNL1       -0.0029
     29 C         140.3845  142.8107  167.3269 C.ar    1  UNL1        0.0013
     30 C         139.9341  141.9953  166.1513 C.ar    1  UNL1        0.0209
     31 C         139.4540  140.5888  166.3539 C.ar    1  UNL1        0.0013
     32 C         139.4243  139.9976  167.7322 C.ar    1  UNL1       -0.0029
     33 C         139.8452  140.2218  170.2861 C.3     1  UNL1        0.0957
     34 C         142.2483  139.2620  170.0549 C.3     1  UNL1        0.0861
     35 N         140.8951  139.2343  170.7014 N.3     1  UNL1       -0.2926
     36 H         141.0439  139.3661  171.7018 H       1  UNL1        0.1236
@<TRIPOS>BOND
     1    34    35    1
     2    35    33    1
     3    33    27    1
     4    27    28   ar
     5    28    29   ar
     6    29    30   ar
     7    30    22    1
     8    22    23   ar
     9    23    24   ar
    10    24     1    1
    11     1     2   ar
    12     2     3   ar
    13     3    10    1
    14    10    11   ar
    15    11    12   ar
    16    12    13   ar
    17    13    16    1
    18    16    17    2
    19    16    18    2
    20    16    19    1
    21    19    20    1
    22    19    21    1
    23    13    14   ar
    24    14    15   ar
    25     3     4   ar
    26     4     5   ar
    27     5     6   ar
    28     6     7    1
    29    24    25   ar
    30    25    26   ar
    31    30    31   ar
    32    31    32   ar
    33    32    27   ar
    34    26    22   ar
    35     6     1   ar
    36    15    10   ar
    37    35    36    1
    38     7     8    1
    39     7     9    1
@<TRIPOS>MOLECULE
*****
 36 39 0 0 0
SMALL
GASTEIGER

@<TRIPOS>ATOM
      1 C         139.4048  139.5434  160.9384 C.ar    1  UNL1        0.1493
      2 N         140.6985  139.8271  160.2342 N.ar    1  UNL1       -0.2378
      3 C         140.6935  140.2266  158.7884 C.ar    1  UNL1        0.1006
      4 C         139.3949  140.3423  158.0468 C.ar    1  UNL1        0.1193
      5 N         138.1012  140.0586  158.7509 N.ar    1  UNL1       -0.2264
      6 C         138.1061  139.6591  160.1967 C.ar    1  UNL1        0.1463
      7 N         136.8124  139.3754  160.9008 N.pl3   1  UNL1       -0.3413
      8 H         135.9600  139.4514  160.4140 H       1  UNL1        0.1438
      9 H         136.8156  139.1133  161.8498 H       1  UNL1        0.1438
     10 C         141.9873  140.5103  158.0843 C.ar    1  UNL1        0.0193
     11 C         142.4501  139.6127  156.9753 C.ar    1  UNL1        0.0029
     12 C         143.7439  139.8965  156.2712 C.ar    1  UNL1        0.0184
     13 C         144.5748  141.0778  156.6762 C.ar    1  UNL1        0.1056
     14 C         144.1119  141.9754  157.7852 C.ar    1  UNL1        0.0184
     15 C         142.8182  141.6917  158.4893 C.ar    1  UNL1        0.0029
     16 S         145.8685  141.3615  155.9721 S.O2    1  UNL1        0.0070
     17 O         145.5004  140.3794  154.8998 O.2     1  UNL1       -0.1687
     18 O         146.2367  142.3437  157.0444 O.2     1  UNL1       -0.1687
     19 C         147.1622  141.6453  155.2680 C.3     1  UNL1        0.1339
     20 C         147.2574  141.4833  153.7798 C.3     1  UNL1        0.0257
     21 C         148.3608  142.0909  156.0522 C.3     1  UNL1        0.0257
     22 C         139.8929  139.0888  164.7621 C.ar    1  UNL1        0.1231
     23 C         140.1820  139.8145  163.4815 C.ar    1  UNL1        0.0642
     24 C         139.4097  139.1440  162.3842 C.ar    1  UNL1        0.1971
     25 O         138.6433  138.0039  162.9866 O.2     1  UNL1       -0.3517
     26 N         138.9420  137.9699  164.4562 N.ar    1  UNL1       -0.0769
     27 C         141.5820  140.0926  168.8105 C.ar    1  UNL1       -0.0064
     28 C         140.0971  140.0817  168.5990 C.ar    1  UNL1       -0.0029
     29 C         139.5340  139.7471  167.2496 C.ar    1  UNL1        0.0013
     30 C         140.4560  139.4234  166.1115 C.ar    1  UNL1        0.0209
     31 C         141.9409  139.4343  166.3229 C.ar    1  UNL1        0.0013
     32 C         142.5040  139.7689  167.6724 C.ar    1  UNL1       -0.0029
     33 C         142.1450  140.4271  170.1599 C.3     1  UNL1        0.0957
     34 C         143.9177  142.3163  169.9627 C.3     1  UNL1        0.0861
     35 N         143.5648  140.8945  170.2854 N.3     1  UNL1       -0.2926
     36 H         143.8430  140.7346  171.2536 H       1  UNL1        0.1236
@<TRIPOS>BOND
     1    34    35    1
     2    35    33    1
     3    33    27    1
     4    27    28   ar
     5    28    29   ar
     6    29    30   ar
     7    30    22    1
     8    22    23   ar
     9    23    24   ar
    10    24     1    1
    11     1     2   ar
    12     2     3   ar
    13     3    10    1
    14    10    11   ar
    15    11    12   ar
    16    12    13   ar
    17    13    16    1
    18    16    17    2
    19    16    18    2
    20    16    19    1
    21    19    20    1
    22    19    21    1
    23    13    14   ar
    24    14    15   ar
    25     3     4   ar
    26     4     5   ar
    27     5     6   ar
    28     6     7    1
    29    24    25   ar
    30    25    26   ar
    31    30    31   ar
    32    31    32   ar
    33    32    27   ar
    34    26    22   ar
    35     6     1   ar
    36    15    10   ar
    37    35    36    1
    38     7     8    1
    39     7     9    1
@<TRIPOS>MOLECULE
*****
 36 39 0 0 0
SMALL
GASTEIGER

@<TRIPOS>ATOM
      1 C         142.3155  138.5249  158.1443 C.ar    1  UNL1        0.1493
      2 N         142.1058  137.0658  157.8669 N.ar    1  UNL1       -0.2378
      3 C         142.8453  136.4023  156.7431 C.ar    1  UNL1        0.1006
      4 C         143.7943  137.1979  155.8968 C.ar    1  UNL1        0.1193
      5 N         144.0040  138.6570  156.1743 N.ar    1  UNL1       -0.2264
      6 C         143.2646  139.3205  157.2980 C.ar    1  UNL1        0.1463
      7 N         143.4742  140.7797  157.5755 N.pl3   1  UNL1       -0.3413
      8 H         144.0971  141.3018  157.0200 H       1  UNL1        0.1438
      9 H         142.9889  141.2152  158.3131 H       1  UNL1        0.1438
     10 C         142.6356  134.9431  156.4656 C.ar    1  UNL1        0.0193
     11 C         141.6191  134.5112  155.4508 C.ar    1  UNL1        0.0029
     12 C         141.4095  133.0519  155.1734 C.ar    1  UNL1        0.0184
     13 C         142.2164  132.0248  155.9108 C.ar    1  UNL1        0.1056
     14 C         143.2329  132.4568  156.9257 C.ar    1  UNL1        0.0184
     15 C         143.4426  133.9160  157.2031 C.ar    1  UNL1        0.0029
     16 S         142.0067  130.5657  155.6334 S.O2    1  UNL1        0.0070
     17 O         143.1505  130.2284  156.5433 O.2     1  UNL1       -0.1687
     18 O         140.8629  130.9030  154.7235 O.2     1  UNL1       -0.1687
     19 C         141.7971  129.1066  155.3560 C.3     1  UNL1        0.1339
     20 C         142.9318  128.1403  155.5255 C.3     1  UNL1        0.0257
     21 C         140.4527  128.6137  154.9091 C.3     1  UNL1        0.0257
     22 C         140.4056  139.5550  161.3625 C.ar    1  UNL1        0.1231
     23 C         141.0888  138.5196  160.5193 C.ar    1  UNL1        0.0642
     24 C         141.5760  139.1884  159.2681 C.ar    1  UNL1        0.1971
     25 O         141.1939  140.6373  159.3382 O.2     1  UNL1       -0.3517
     26 N         140.4706  140.8638  160.6326 N.ar    1  UNL1       -0.0769
     27 C         138.4964  138.8574  165.3773 C.ar    1  UNL1       -0.0064
     28 C         138.2528  140.1432  164.6442 C.ar    1  UNL1       -0.0029
     29 C         138.8892  140.3757  163.3060 C.ar    1  UNL1        0.0013
     30 C         139.7692  139.3225  162.7008 C.ar    1  UNL1        0.0209
     31 C         140.0128  138.0367  163.4339 C.ar    1  UNL1        0.0013
     32 C         139.3763  137.8042  164.7721 C.ar    1  UNL1       -0.0029
     33 C         137.8600  138.6249  166.7155 C.3     1  UNL1        0.0957
     34 C         139.6899  140.0806  167.8479 C.3     1  UNL1        0.0861
     35 N         138.5011  139.1723  167.9562 N.3     1  UNL1       -0.2926
     36 H         137.7791  139.6907  168.4566 H       1  UNL1        0.1236
@<TRIPOS>BOND
     1    34    35    1
     2    35    33    1
     3    33    27    1
     4    27    28   ar
     5    28    29   ar
     6    29    30   ar
     7    30    22    1
     8    22    23   ar
     9    23    24   ar
    10    24     1    1
    11     1     2   ar
    12     2     3   ar
    13     3    10    1
    14    10    11   ar
    15    11    12   ar
    16    12    13   ar
    17    13    16    1
    18    16    17    2
    19    16    18    2
    20    16    19    1
    21    19    20    1
    22    19    21    1
    23    13    14   ar
    24    14    15   ar
    25     3     4   ar
    26     4     5   ar
    27     5     6   ar
    28     6     7    1
    29    24    25   ar
    30    25    26   ar
    31    30    31   ar
    32    31    32   ar
    33    32    27   ar
    34    26    22   ar
    35     6     1   ar
    36    15    10   ar
    37    35    36    1
    38     7     8    1
    39     7     9    1
@<TRIPOS>MOLECULE
*****
 36 39 0 0 0
SMALL
GASTEIGER

@<TRIPOS>ATOM
      1 C         141.6965  143.0313  161.5997 C.ar    1  UNL1        0.1493
      2 N         140.7016  142.4747  160.6250 N.ar    1  UNL1       -0.2378
      3 C         140.3298  143.2597  159.4021 C.ar    1  UNL1        0.1006
      4 C         140.9529  144.6013  159.1539 C.ar    1  UNL1        0.1193
      5 N         141.9479  145.1579  160.1286 N.ar    1  UNL1       -0.2264
      6 C         142.3197  144.3730  161.3515 C.ar    1  UNL1        0.1463
      7 N         143.3147  144.9296  162.3263 N.pl3   1  UNL1       -0.3413
      8 H         143.7237  145.8102  162.1634 H       1  UNL1        0.1438
      9 H         143.5588  144.4144  163.1289 H       1  UNL1        0.1438
     10 C         139.3347  142.7029  158.4273 C.ar    1  UNL1        0.0193
     11 C         138.6170  141.4228  158.7370 C.ar    1  UNL1        0.0029
     12 C         137.6219  140.8662  157.7622 C.ar    1  UNL1        0.0184
     13 C         137.3447  141.5896  156.4778 C.ar    1  UNL1        0.1056
     14 C         138.0625  142.8698  156.1682 C.ar    1  UNL1        0.0184
     15 C         139.0575  143.4265  157.1429 C.ar    1  UNL1        0.0029
     16 S         136.3498  141.0330  155.5031 S.O2    1  UNL1        0.0070
     17 O         135.7825  142.4063  155.2978 O.2     1  UNL1       -0.1687
     18 O         136.9170  139.6596  155.7084 O.2     1  UNL1       -0.1687
     19 C         135.3548  140.4763  154.5284 C.3     1  UNL1        0.1339
     20 C         135.7574  139.3762  153.5916 C.3     1  UNL1        0.0257
     21 C         133.9572  141.0198  154.4905 C.3     1  UNL1        0.0257
     22 C         142.2173  141.4930  165.1250 C.ar    1  UNL1        0.1231
     23 C         141.6023  142.5205  164.2218 C.ar    1  UNL1        0.0642
     24 C         142.0683  142.2463  162.8226 C.ar    1  UNL1        0.1971
     25 O         142.9714  141.0492  162.8611 O.2     1  UNL1       -0.3517
     26 N         143.0635  140.5836  164.2841 N.ar    1  UNL1       -0.0769
     27 C         141.6276  141.1912  169.5760 C.ar    1  UNL1       -0.0064
     28 C         140.7411  140.4152  168.6477 C.ar    1  UNL1       -0.0029
     29 C         140.9377  140.5158  167.1640 C.ar    1  UNL1        0.0013
     30 C         142.0208  141.3924  166.6087 C.ar    1  UNL1        0.0209
     31 C         142.9073  142.1684  167.5370 C.ar    1  UNL1        0.0013
     32 C         142.7107  142.0678  169.0207 C.ar    1  UNL1       -0.0029
     33 C         141.4311  141.0907  171.0597 C.3     1  UNL1        0.0957
     34 C         139.6534  142.9841  170.9916 C.3     1  UNL1        0.0861
     35 N         140.5754  142.0953  171.7726 N.3     1  UNL1       -0.2926
     36 H         139.9952  141.5742  172.4300 H       1  UNL1        0.1236
@<TRIPOS>BOND
     1    34    35    1
     2    35    33    1
     3    33    27    1
     4    27    28   ar
     5    28    29   ar
     6    29    30   ar
     7    30    22    1
     8    22    23   ar
     9    23    24   ar
    10    24     1    1
    11     1     2   ar
    12     2     3   ar
    13     3    10    1
    14    10    11   ar
    15    11    12   ar
    16    12    13   ar
    17    13    16    1
    18    16    17    2
    19    16    18    2
    20    16    19    1
    21    19    20    1
    22    19    21    1
    23    13    14   ar
    24    14    15   ar
    25     3     4   ar
    26     4     5   ar
    27     5     6   ar
    28     6     7    1
    29    24    25   ar
    30    25    26   ar
    31    30    31   ar
    32    31    32   ar
    33    32    27   ar
    34    26    22   ar
    35     6     1   ar
    36    15    10   ar
    37    35    36    1
    38     7     8    1
    39     7     9    1
@<TRIPOS>MOLECULE
*****
 36 39 0 0 0
SMALL
GASTEIGER

@<TRIPOS>ATOM
      1 C         139.8383  138.8124  156.8386 C.ar    1  UNL1        0.1493
      2 N         139.7494  138.6915  158.3311 N.ar    1  UNL1       -0.2378
      3 C         138.8370  139.5973  159.1038 C.ar    1  UNL1        0.1006
      4 C         138.0137  140.6239  158.3842 C.ar    1  UNL1        0.1193
      5 N         138.1027  140.7448  156.8917 N.ar    1  UNL1       -0.2264
      6 C         139.0150  139.8391  156.1189 C.ar    1  UNL1        0.1463
      7 N         139.1039  139.9600  154.6265 N.pl3   1  UNL1       -0.3413
      8 H         138.5635  140.6339  154.1541 H       1  UNL1        0.1438
      9 H         139.7027  139.3655  154.1193 H       1  UNL1        0.1438
     10 C         138.7481  139.4763  160.5964 C.ar    1  UNL1        0.0193
     11 C         138.4052  140.6772  161.4270 C.ar    1  UNL1        0.0029
     12 C         138.3163  140.5562  162.9195 C.ar    1  UNL1        0.0184
     13 C         138.5702  139.2343  163.5813 C.ar    1  UNL1        0.1056
     14 C         138.9130  138.0333  162.7505 C.ar    1  UNL1        0.0184
     15 C         139.0020  138.1543  161.2581 C.ar    1  UNL1        0.0029
     16 S         138.4813  139.1133  165.0737 S.O2    1  UNL1        0.0070
     17 O         138.9045  137.6772  164.9825 O.2     1  UNL1       -0.1687
     18 O         138.0580  140.5494  165.1650 O.2     1  UNL1       -0.1687
     19 C         138.3923  138.9923  166.5662 C.3     1  UNL1        0.1339
     20 C         139.3327  139.7694  167.4390 C.3     1  UNL1        0.0257
     21 C         137.3630  138.0942  167.1858 C.3     1  UNL1        0.0257
     22 C         142.0718  135.9823  155.4006 C.ar    1  UNL1        0.1231
     23 C         141.1528  136.5161  156.4592 C.ar    1  UNL1        0.0642
     24 C         140.7507  137.9066  156.0659 C.ar    1  UNL1        0.1971
     25 O         141.4211  138.2323  154.7642 O.2     1  UNL1       -0.3517
     26 N         142.2376  137.0431  154.3530 N.ar    1  UNL1       -0.0769
     27 C         143.9937  131.9135  155.3724 C.ar    1  UNL1       -0.0064
     28 C         144.3384  132.8983  156.4500 C.ar    1  UNL1       -0.0029
     29 C         143.6977  134.2546  156.4594 C.ar    1  UNL1        0.0013
     30 C         142.7124  134.6261  155.3912 C.ar    1  UNL1        0.0209
     31 C         142.3677  133.6412  154.3136 C.ar    1  UNL1        0.0013
     32 C         143.0083  132.2850  154.3042 C.ar    1  UNL1       -0.0029
     33 C         144.6343  130.5572  155.3630 C.3     1  UNL1        0.0957
     34 C         144.8939  129.2533  153.1308 C.3     1  UNL1        0.0861
     35 N         144.1504  129.5058  154.4089 N.3     1  UNL1       -0.2926
     36 H         144.1399  128.6246  154.9224 H       1  UNL1        0.1236
@<TRIPOS>BOND
     1    34    35    1
     2    35    33    1
     3    33    27    1
     4    27    28   ar
     5    28    29   ar
     6    29    30   ar
     7    30    22    1
     8    22    23   ar
     9    23    24   ar
    10    24     1    1
    11     1     2   ar
    12     2     3   ar
    13     3    10    1
    14    10    11   ar
    15    11    12   ar
    16    12    13   ar
    17    13    16    1
    18    16    17    2
    19    16    18    2
    20    16    19    1
    21    19    20    1
    22    19    21    1
    23    13    14   ar
    24    14    15   ar
    25     3     4   ar
    26     4     5   ar
    27     5     6   ar
    28     6     7    1
    29    24    25   ar
    30    25    26   ar
    31    30    31   ar
    32    31    32   ar
    33    32    27   ar
    34    26    22   ar
    35     6     1   ar
    36    15    10   ar
    37    35    36    1
    38     7     8    1
    39     7     9    1
@<TRIPOS>MOLECULE
*****
 36 39 0 0 0
SMALL
GASTEIGER

@<TRIPOS>ATOM
      1 C         137.4158  139.5327  154.7179 C.ar    1  UNL1        0.1493
      2 N         136.0110  139.2672  155.1717 N.ar    1  UNL1       -0.2378
      3 C         135.0746  140.4121  155.4217 C.ar    1  UNL1        0.1006
      4 C         135.5430  141.8223  155.2178 C.ar    1  UNL1        0.1193
      5 N         136.9478  142.0878  154.7640 N.ar    1  UNL1       -0.2264
      6 C         137.8842  140.9431  154.5140 C.ar    1  UNL1        0.1463
      7 N         139.2891  141.2085  154.0602 N.pl3   1  UNL1       -0.3413
      8 H         139.5965  142.1342  153.9264 H       1  UNL1        0.1438
      9 H         139.9037  140.4571  153.8962 H       1  UNL1        0.1438
     10 C         133.6697  140.1465  155.8755 C.ar    1  UNL1        0.0193
     11 C         133.3449  138.8778  156.6067 C.ar    1  UNL1        0.0029
     12 C         131.9400  138.6124  157.0605 C.ar    1  UNL1        0.0184
     13 C         130.8600  139.6156  156.7831 C.ar    1  UNL1        0.1056
     14 C         131.1848  140.8844  156.0518 C.ar    1  UNL1        0.0184
     15 C         132.5897  141.1498  155.5980 C.ar    1  UNL1        0.0029
     16 S         129.4552  139.3501  157.2369 S.O2    1  UNL1        0.0070
     17 O         128.9295  140.0498  156.0187 O.2     1  UNL1       -0.1687
     18 O         129.9809  138.6503  158.4550 O.2     1  UNL1       -0.1687
     19 C         128.0504  139.0846  157.6907 C.3     1  UNL1        0.1339
     20 C         127.1150  140.2296  157.9437 C.3     1  UNL1        0.0257
     21 C         127.5810  137.6741  157.8914 C.3     1  UNL1        0.0257
     22 C         140.0397  136.6734  154.7901 C.ar    1  UNL1        0.1231
     23 C         139.3014  137.7915  155.4646 C.ar    1  UNL1        0.0642
     24 C         138.3522  138.3879  154.4679 C.ar    1  UNL1        0.1971
     25 O         138.5037  137.6384  153.1775 O.2     1  UNL1       -0.3517
     26 N         139.5467  136.5788  153.3766 N.ar    1  UNL1       -0.0769
     27 C         143.1816  134.0617  156.6761 C.ar    1  UNL1       -0.0064
     28 C         143.0833  135.5096  157.0554 C.ar    1  UNL1       -0.0029
     29 C         142.0360  136.3801  156.4267 C.ar    1  UNL1        0.0013
     30 C         141.0870  135.8028  155.4188 C.ar    1  UNL1        0.0209
     31 C         141.1853  134.3549  155.0395 C.ar    1  UNL1        0.0013
     32 C         142.2326  133.4844  155.6681 C.ar    1  UNL1       -0.0029
     33 C         144.2290  133.1911  157.3047 C.3     1  UNL1        0.0957
     34 C         144.9671  131.0538  156.0253 C.3     1  UNL1        0.0861
     35 N         145.2231  132.4718  156.4420 N.3     1  UNL1       -0.2926
     36 H         145.3191  133.0176  155.5857 H       1  UNL1        0.1236
@<TRIPOS>BOND
     1    34    35    1
     2    35    33    1
     3    33    27    1
     4    27    28   ar
     5    28    29   ar
     6    29    30   ar
     7    30    22    1
     8    22    23   ar
     9    23    24   ar
    10    24     1    1
    11     1     2   ar
    12     2     3   ar
    13     3    10    1
    14    10    11   ar
    15    11    12   ar
    16    12    13   ar
    17    13    16    1
    18    16    17    2
    19    16    18    2
    20    16    19    1
    21    19    20    1
    22    19    21    1
    23    13    14   ar
    24    14    15   ar
    25     3     4   ar
    26     4     5   ar
    27     5     6   ar
    28     6     7    1
    29    24    25   ar
    30    25    26   ar
    31    30    31   ar
    32    31    32   ar
    33    32    27   ar
    34    26    22   ar
    35     6     1   ar
    36    15    10   ar
    37    35    36    1
    38     7     8    1
    39     7     9    1
@<TRIPOS>MOLECULE
*****
 36 39 0 0 0
SMALL
GASTEIGER

@<TRIPOS>ATOM
      1 C         142.4010  139.8422  160.8990 C.ar    1  UNL1        0.1493
      2 N         141.1961  140.1992  160.0800 N.ar    1  UNL1       -0.2378
      3 C         140.9419  139.5020  158.7765 C.ar    1  UNL1        0.1006
      4 C         141.8925  138.4478  158.2919 C.ar    1  UNL1        0.1193
      5 N         143.0974  138.0908  159.1109 N.ar    1  UNL1       -0.2264
      6 C         143.3517  138.7879  160.4144 C.ar    1  UNL1        0.1463
      7 N         144.5566  138.4309  161.2333 N.pl3   1  UNL1       -0.3413
      8 H         145.1805  137.7390  160.9153 H       1  UNL1        0.1438
      9 H         144.7235  138.8885  162.0889 H       1  UNL1        0.1438
     10 C         139.7368  139.8590  157.9575 C.ar    1  UNL1        0.0193
     11 C         139.6388  139.4066  156.5308 C.ar    1  UNL1        0.0029
     12 C         138.4338  139.7637  155.7119 C.ar    1  UNL1        0.0184
     13 C         137.3270  140.5732  156.3197 C.ar    1  UNL1        0.1056
     14 C         137.4250  141.0256  157.7465 C.ar    1  UNL1        0.0184
     15 C         138.6300  140.6685  158.5654 C.ar    1  UNL1        0.0029
     16 S         136.1220  140.9303  155.5009 S.O2    1  UNL1        0.0070
     17 O         136.4873  142.3820  155.5963 O.2     1  UNL1       -0.1687
     18 O         135.7567  139.4786  155.4054 O.2     1  UNL1       -0.1687
     19 C         134.9171  141.2874  154.6820 C.3     1  UNL1        0.1339
     20 C         133.5449  141.1710  155.2766 C.3     1  UNL1        0.0257
     21 C         135.0843  141.7608  153.2685 C.3     1  UNL1        0.0257
     22 C         142.8524  140.9898  164.5793 C.ar    1  UNL1        0.1231
     23 C         142.4908  139.9421  163.5686 C.ar    1  UNL1        0.0642
     24 C         142.6552  140.5394  162.2025 C.ar    1  UNL1        0.1971
     25 O         143.1186  141.9563  162.3689 O.2     1  UNL1       -0.3517
     26 N         143.2404  142.2347  163.8378 N.ar    1  UNL1       -0.0769
     27 C         142.7853  140.4868  169.0506 C.ar    1  UNL1       -0.0064
     28 C         142.7295  139.2816  168.1593 C.ar    1  UNL1       -0.0029
     29 C         142.7519  139.4493  166.6689 C.ar    1  UNL1        0.0013
     30 C         142.8301  140.8222  166.0697 C.ar    1  UNL1        0.0209
     31 C         142.8858  142.0274  166.9609 C.ar    1  UNL1        0.0013
     32 C         142.8634  141.8597  168.4514 C.ar    1  UNL1       -0.0029
     33 C         142.7629  140.3192  170.5410 C.3     1  UNL1        0.0957
     34 C         140.1690  140.1873  170.6076 C.3     1  UNL1        0.0861
     35 N         141.4735  140.4671  171.2931 N.3     1  UNL1       -0.2926
     36 H         141.5261  139.8380  172.0942 H       1  UNL1        0.1236
@<TRIPOS>BOND
     1    34    35    1
     2    35    33    1
     3    33    27    1
     4    27    28   ar
     5    28    29   ar
     6    29    30   ar
     7    30    22    1
     8    22    23   ar
     9    23    24   ar
    10    24     1    1
    11     1     2   ar
    12     2     3   ar
    13     3    10    1
    14    10    11   ar
    15    11    12   ar
    16    12    13   ar
    17    13    16    1
    18    16    17    2
    19    16    18    2
    20    16    19    1
    21    19    20    1
    22    19    21    1
    23    13    14   ar
    24    14    15   ar
    25     3     4   ar
    26     4     5   ar
    27     5     6   ar
    28     6     7    1
    29    24    25   ar
    30    25    26   ar
    31    30    31   ar
    32    31    32   ar
    33    32    27   ar
    34    26    22   ar
    35     6     1   ar
    36    15    10   ar
    37    35    36    1
    38     7     8    1
    39     7     9    1
